REMARK  19 active torsions:
REMARK  status: ('A' for Active; 'I' for Inactive)
REMARK    1  A    between atoms: N_1  and  CA_2 
REMARK    2  A    between atoms: CA_2  and  C_3 
REMARK    3  A    between atoms: CA_2  and  CB_5 
REMARK       I    between atoms: C_3  and  N_19 
REMARK    4  A    between atoms: CB_5  and  CG2_7 
REMARK    5  A    between atoms: CB_5  and  CG1_6 
REMARK    6  A    between atoms: N_19  and  CA_20 
REMARK    7  A    between atoms: CA_20  and  C_21 
REMARK    8  A    between atoms: CA_20  and  CB_24 
REMARK       I    between atoms: C_21  and  N_37 
REMARK    9  A    between atoms: CG_23  and  CB_24 
REMARK       I    between atoms: N_37  and  CA_38 
REMARK       I    between atoms: CA_38  and  CB_41 
REMARK       I    between atoms: CA_38  and  C_39 
REMARK       I    between atoms: C_39  and  N_57 
REMARK       I    between atoms: CB_41  and  CG_42 
REMARK       I    between atoms: N_57  and  CA_58 
REMARK       I    between atoms: CA_58  and  C_59 
REMARK       I    between atoms: CA_58  and  CB_61 
REMARK       I    between atoms: C_59  and  N_77 
REMARK       I    between atoms: CB_61  and  CG_62 
REMARK       I    between atoms: N_77  and  CA_78 
REMARK       I    between atoms: CA_78  and  C_79 
REMARK       I    between atoms: CA_78  and  CB_81 
REMARK       I    between atoms: C_79  and  N_99 
REMARK       I    between atoms: CB_81  and  CG_82 
REMARK       I    between atoms: CG_82  and  CD_83 
REMARK       I    between atoms: CD_83  and  CE_84 
REMARK       I    between atoms: CE_84  and  NZ_85 
REMARK   10  A    between atoms: N_99  and  CA_100 
REMARK   11  A    between atoms: CA_100  and  CB_103 
REMARK   12  A    between atoms: CA_100  and  C_101 
REMARK       I    between atoms: C_101  and  N_113 
REMARK   13  A    between atoms: CB_103  and  CG_104 
REMARK       I    between atoms: CG_104  and  ND2_110 
REMARK   14  A    between atoms: N_113  and  CA_114 
REMARK   15  A    between atoms: CA_114  and  CB_117 
REMARK   16  A    between atoms: CA_114  and  C_115 
REMARK   17  A    between atoms: CB_117  and  CG1_118 
REMARK   18  A    between atoms: CB_117  and  CG2_119 
REMARK   19  A    between atoms: CG1_118  and  CD1_120 
ROOT
ATOM      1  C   HIS A   2      -0.664  24.245  -2.993  0.73  1.91     0.734 C 
ATOM      2  O   HIS A   2      -0.714  25.426  -3.332 -0.59  1.66    -0.589 OA
ATOM      3  N   PHE A   3      -1.748  23.447  -3.009 -0.42  1.82    -0.416 N 
ATOM      4  CA  PHE A   3      -3.003  23.930  -3.506 -0.00  1.91    -0.002 C 
ATOM      5  C   PHE A   3      -3.742  24.549  -2.352  0.60  1.91     0.597 C 
ATOM      6  O   PHE A   3      -3.630  24.085  -1.219 -0.57  1.66    -0.568 OA
ATOM      7  CB  PHE A   3      -3.831  22.773  -4.084 -0.03  1.91    -0.034 C 
ATOM      8  CG  PHE A   3      -4.587  23.319  -5.236  0.01  1.91     0.012 A 
ATOM      9  CD1 PHE A   3      -3.932  23.445  -6.438 -0.13  1.91    -0.126 A 
ATOM     10  CD2 PHE A   3      -5.899  23.716  -5.133 -0.13  1.91    -0.126 A 
ATOM     11  CE1 PHE A   3      -4.576  23.950  -7.539 -0.17  1.91    -0.170 A 
ATOM     12  CE2 PHE A   3      -6.549  24.220  -6.235 -0.17  1.91    -0.170 A 
ATOM     13  CZ  PHE A   3      -5.890  24.336  -7.436 -0.11  1.91    -0.107 A 
ATOM     14  HZ  PHE A   3      -6.368  24.703  -8.241  0.13  1.46     0.130 H 
ATOM     15  HA  PHE A   3      -2.806  24.664  -4.154  0.10  1.39     0.098 H 
ATOM     16  HE1 PHE A   3      -4.082  24.036  -8.415  0.14  1.46     0.143 H 
ATOM     17  HE2 PHE A   3      -7.523  24.509  -6.155  0.14  1.46     0.143 H 
ATOM     18  H   PHE A   3      -1.582  22.496  -2.641  0.27  0.60     0.272 HD
ATOM     19  HD2 PHE A   3      -6.379  23.638  -4.261  0.13  1.46     0.133 H 
ATOM     20  HD1 PHE A   3      -2.974  23.165  -6.515  0.13  1.46     0.133 H 
ATOM     21  HB3 PHE A   3      -4.452  22.490  -3.405  0.03  1.49     0.029 H 
ATOM     22  HB2 PHE A   3      -3.216  22.103  -4.399  0.03  1.49     0.029 H 
ATOM     23  N   PHE A   4      -4.420  25.696  -2.569 -0.42  1.82    -0.416 N 
ATOM     24  CA  PHE A   4      -5.121  26.262  -1.448 -0.00  1.91    -0.002 C 
ATOM     25  C   PHE A   4      -6.414  25.569  -1.109  0.60  1.91     0.597 C 
ATOM     26  O   PHE A   4      -6.517  24.864  -0.105 -0.57  1.66    -0.568 OA
ATOM     27  CB  PHE A   4      -5.456  27.747  -1.659 -0.03  1.91    -0.034 C 
ATOM     28  CG  PHE A   4      -5.937  28.280  -0.355  0.01  1.91     0.012 A 
ATOM     29  CD1 PHE A   4      -5.032  28.725   0.581 -0.13  1.91    -0.126 A 
ATOM     30  CD2 PHE A   4      -7.280  28.336  -0.068 -0.13  1.91    -0.126 A 
ATOM     31  CE1 PHE A   4      -5.460  29.219   1.789 -0.17  1.91    -0.170 A 
ATOM     32  CE2 PHE A   4      -7.714  28.829   1.140 -0.17  1.91    -0.170 A 
ATOM     33  CZ  PHE A   4      -6.804  29.273   2.068 -0.11  1.91    -0.107 A 
ATOM     34  HZ  PHE A   4      -7.117  29.638   2.950  0.13  1.46     0.130 H 
ATOM     35  HA  PHE A   4      -4.511  26.162  -0.633  0.10  1.39     0.098 H 
ATOM     36  HE1 PHE A   4      -4.782  29.539   2.467  0.14  1.46     0.143 H 
ATOM     37  HE2 PHE A   4      -8.711  28.861   1.341  0.14  1.46     0.143 H 
ATOM     38  H   PHE A   4      -4.380  26.065  -3.505  0.27  0.60     0.272 HD
ATOM     39  HD2 PHE A   4      -7.948  28.016  -0.744  0.13  1.46     0.133 H 
ATOM     40  HD1 PHE A   4      -4.053  28.691   0.383  0.13  1.46     0.133 H 
ATOM     41  HB3 PHE A   4      -6.172  27.798  -2.301  0.03  1.49     0.029 H 
ATOM     42  HB2 PHE A   4      -4.641  28.200  -1.901  0.03  1.49     0.029 H 
ATOM     43  N   LYS A   5      -7.409  25.703  -2.016 -0.35  1.82    -0.348 N 
ATOM     44  CA  LYS A   5      -8.767  25.243  -1.837 -0.24  1.91    -0.240 C 
ATOM     45  C   LYS A   5      -9.519  25.823  -2.989  0.73  1.91     0.734 C 
ATOM     46  O   LYS A   5     -10.713  25.581  -3.164 -0.59  1.66    -0.589 OA
ATOM     47  CB  LYS A   5      -9.487  25.856  -0.619 -0.01  1.91    -0.009 C 
ATOM     48  CG  LYS A   5      -9.076  25.317   0.747  0.02  1.91     0.019 C 
ATOM     49  CD  LYS A   5      -9.362  23.831   0.931 -0.05  1.91    -0.048 C 
ATOM     50  CE  LYS A   5      -8.836  23.301   2.261 -0.01  1.91    -0.014 C 
ATOM     51  NZ  LYS A   5      -7.360  23.249   2.232 -0.39  1.82    -0.385 N 
ATOM     52  HA  LYS A   5      -8.787  24.256  -1.892  0.14  1.39     0.143 H 
ATOM     53  HE2 LYS A   5      -9.137  23.910   2.990  0.11  1.10     0.114 H 
ATOM     54  HE3 LYS A   5      -9.201  22.386   2.408  0.11  1.10     0.114 H 
ATOM     55  HG2 LYS A   5      -8.087  25.473   0.874  0.01  1.49     0.010 H 
ATOM     56  HG3 LYS A   5      -9.568  25.831   1.462  0.01  1.49     0.010 H 
ATOM     57  HZ1 LYS A   5      -7.058  22.298   2.151  0.34  0.60     0.340 HD
ATOM     58  HZ3 LYS A   5      -7.020  23.772   1.449  0.34  0.60     0.340 HD
ATOM     59  HZ2 LYS A   5      -6.992  23.642   3.077  0.34  0.60     0.340 HD
ATOM     60  HD3 LYS A   5      -8.922  23.324   0.193  0.06  1.49     0.062 H 
ATOM     61  HD2 LYS A   5     -10.349  23.688   0.902  0.06  1.49     0.062 H 
ATOM     62  H   LYS A   5      -7.082  26.195  -2.899  0.27  0.60     0.275 HD
ATOM     63  HB3 LYS A   5     -10.474  25.699  -0.736  0.04  1.49     0.036 H 
ATOM     64  HB2 LYS A   5      -9.318  26.847  -0.630  0.04  1.49     0.036 H 
ATOM     65  N   ASN A   6      -8.797  26.596  -3.818 -0.42  1.82    -0.416 N 
ATOM     66  H   ASN A   6      -7.771  26.611  -3.577  0.27  0.60     0.272 HD
ENDROOT
BRANCH   1  67
ATOM     67  CA  HIS A   2       0.627  23.624  -2.559 -0.14  1.91    -0.135 C 
ATOM     68  HA  HIS A   2       0.857  22.888  -3.193  0.12  1.39     0.121 H 
BRANCH  67  69
ATOM     69  N   HIS A   2       1.633  24.639  -2.636 -0.35  1.82    -0.348 N 
ATOM     70  C   VAL A   1       2.936  24.322  -2.767  0.62  1.91     0.616 C 
ATOM     71  O   VAL A   1       3.332  23.159  -2.829 -0.57  1.66    -0.572 OA
ATOM     72  H   HIS A   2       1.449  25.660  -2.599  0.27  0.60     0.275 HD
BRANCH  70  73
ATOM     73  CA  VAL A   1       3.897  25.461  -2.805 -0.01  1.91    -0.005 C 
ATOM     74  HA  VAL A   1       3.387  26.322  -2.810  0.11  1.10     0.109 H 
BRANCH  73  75
ATOM     75  CB  VAL A   1       4.778  25.314  -4.013  0.32  1.91     0.320 C 
ATOM     76  HB  VAL A   1       5.226  24.431  -3.981 -0.02  1.49    -0.022 H 
BRANCH  75  77
ATOM     77  CG2 VAL A   1       5.833  26.437  -3.993 -0.31  1.91    -0.313 C 
ATOM     78 2HG2 VAL A   1       5.368  27.315  -3.928  0.07  1.49     0.073 H 
ATOM     79 3HG2 VAL A   1       6.365  26.394  -4.834  0.07  1.49     0.073 H 
ATOM     80 1HG2 VAL A   1       6.428  26.306  -3.205  0.07  1.49     0.073 H 
ENDBRANCH  75  77
BRANCH  75  81
ATOM     81  CG1 VAL A   1       3.892  25.296  -5.271 -0.31  1.91    -0.313 C 
ATOM     82 3HG1 VAL A   1       4.184  24.550  -5.865  0.07  1.49     0.073 H 
ATOM     83 1HG1 VAL A   1       2.942  25.160  -4.999  0.07  1.49     0.073 H 
ATOM     84 2HG1 VAL A   1       3.987  26.166  -5.748  0.07  1.49     0.073 H 
ENDBRANCH  75  81
ENDBRANCH  73  75
BRANCH  73  85
ATOM     85  N   VAL A   1       4.717  25.444  -1.573  0.06  1.82     0.058 N 
ATOM     86  H2  VAL A   1       4.507  24.619  -1.050  0.23  0.60     0.227 HD
ATOM     87  H3  VAL A   1       5.685  25.449  -1.823  0.23  0.60     0.227 HD
ATOM     88  H   VAL A   1       4.505  26.253  -1.026  0.23  0.60     0.227 HD
ENDBRANCH  73  85
ENDBRANCH  70  73
ENDBRANCH  67  69
BRANCH  67  89
ATOM     89  CB  HIS A   2       0.450  23.049  -1.141 -0.04  1.91    -0.041 C 
ATOM     90  HB2 HIS A   2      -0.342  22.432  -1.139  0.08  1.49     0.081 H 
ATOM     91  HB3 HIS A   2       1.271  22.523  -0.902  0.08  1.49     0.081 H 
BRANCH  89  92
ATOM     92  CG  HIS A   2       0.237  24.099  -0.092 -0.00  1.91    -0.001 A 
ATOM     93  ND1 HIS A   2      -0.996  24.469   0.395 -0.15  1.82    -0.151 N 
ATOM     94  HD1 HIS A   2      -1.869  24.116   0.136  0.39  0.60     0.387 HD
ATOM     95  CE1 HIS A   2      -0.776  25.435   1.322 -0.02  1.91    -0.017 A 
ATOM     96  HE1 HIS A   2      -1.524  25.884   1.838  0.27  1.36     0.268 H 
ATOM     97  NE2 HIS A   2       0.508  25.711   1.463 -0.17  1.82    -0.172 N 
ATOM     98  CD2 HIS A   2       1.144  24.868   0.570 -0.11  1.91    -0.114 A 
ATOM     99  HE2 HIS A   2       0.921  26.359   2.059  0.39  0.60     0.391 HD
ATOM    100  HD2 HIS A   2       2.149  24.831   0.429  0.23  1.41     0.232 H 
ENDBRANCH  89  92
ENDBRANCH  67  89
ENDBRANCH   1  67
BRANCH  65 101
ATOM    101  CA  ASN A   6      -9.365  27.321  -4.912  0.01  1.91     0.014 C 
ATOM    102  HA  ASN A   6     -10.278  27.621  -4.633  0.10  1.39     0.105 H 
BRANCH 101 103
ATOM    103  CB  ASN A   6      -8.468  28.477  -5.389 -0.20  1.91    -0.204 C 
ATOM    104  HB3 ASN A   6      -8.895  28.908  -6.147  0.08  1.49     0.080 H 
ATOM    105  HB2 ASN A   6      -7.581  28.127  -5.571  0.08  1.49     0.080 H 
BRANCH 103 106
ATOM    106  CG  ASN A   6      -8.381  29.471  -4.238  0.71  1.91     0.713 C 
ATOM    107  ND2 ASN A   6      -7.295  30.290  -4.207 -0.92  1.82    -0.919 N 
ATOM    108 1HD2 ASN A   6      -6.614  30.209  -4.934  0.42  0.60     0.420 HD
ATOM    109 2HD2 ASN A   6      -7.194  30.941  -3.483  0.42  0.60     0.420 HD
ATOM    110  OD1 ASN A   6      -9.262  29.511  -3.381 -0.59  1.66    -0.593 OA
ENDBRANCH 103 106
ENDBRANCH 101 103
BRANCH 101 111
ATOM    111  C   ASN A   6      -9.529  26.368  -6.039  0.60  1.91     0.597 C 
ATOM    112  O   ASN A   6     -10.292  25.420  -5.919 -0.57  1.66    -0.568 OA
ATOM    113  N   ILE A   7      -8.863  26.621  -7.184 -0.38  1.82    -0.382 N 
ATOM    114  H   ILE A   7      -8.226  27.468  -7.100  0.27  0.60     0.268 HD
BRANCH 113 115
ATOM    115  CA  ILE A   7      -8.980  25.851  -8.398 -0.31  1.91    -0.310 C 
ATOM    116  HA  ILE A   7      -8.379  26.268  -9.065  0.14  1.39     0.138 H 
BRANCH 115 117
ATOM    117  CB  ILE A   7      -8.706  24.351  -8.303  0.04  1.91     0.036 C 
ATOM    118  HB  ILE A   7      -7.948  24.212  -7.672  0.08  1.49     0.077 H 
BRANCH 117 119
ATOM    119  CG1 ILE A   7      -8.292  23.793  -9.665 -0.03  1.91    -0.032 C 
ATOM    120 2HG1 ILE A   7      -8.999  24.020 -10.330  0.03  1.49     0.032 H 
ATOM    121 3HG1 ILE A   7      -7.438  24.230  -9.938  0.03  1.49     0.032 H 
BRANCH 119 122
ATOM    122  CD1 ILE A   7      -8.084  22.285  -9.666 -0.07  1.91    -0.070 C 
ATOM    123 1HD1 ILE A   7      -7.365  22.054  -9.014  0.02  1.49     0.020 H 
ATOM    124 2HD1 ILE A   7      -7.817  21.993 -10.581  0.02  1.49     0.020 H 
ATOM    125 3HD1 ILE A   7      -8.936  21.838  -9.403  0.02  1.49     0.020 H 
ENDBRANCH 119 122
ENDBRANCH 117 119
BRANCH 117 126
ATOM    126  CG2 ILE A   7      -9.947  23.580  -7.864 -0.35  1.91    -0.350 C 
ATOM    127 3HG2 ILE A   7     -10.667  23.717  -8.540  0.10  1.49     0.102 H 
ATOM    128 2HG2 ILE A   7      -9.718  22.611  -7.799  0.10  1.49     0.102 H 
ATOM    129 1HG2 ILE A   7     -10.242  23.923  -6.975  0.10  1.49     0.102 H 
ENDBRANCH 117 126
ENDBRANCH 115 117
BRANCH 115 130
ATOM    130  C   ILE A   7     -10.407  26.073  -8.911  0.83  1.91     0.834 C 
ATOM    131  O   ILE A   7     -10.602  26.095 -10.152 -0.82  1.66    -0.819 OA
ATOM    132  OXT ILE A   7     -11.326  26.260  -8.072 -0.82  1.66    -0.819 OA
ENDBRANCH 115 130
ENDBRANCH 113 115
ENDBRANCH 101 111
ENDBRANCH  65 101
TORSDOF 34
