MODEL 1
REMARK VINA RESULT:      -8.0      0.000      0.000
REMARK  19 active torsions:
REMARK  status: ('A' for Active; 'I' for Inactive)
REMARK    1  A    between atoms: N_1  and  CA_2 
REMARK    2  A    between atoms: CA_2  and  C_3 
REMARK    3  A    between atoms: CA_2  and  CB_6 
REMARK       I    between atoms: C_3  and  N_21 
REMARK    4  A    between atoms: CG_5  and  CB_6 
REMARK    5  A    between atoms: N_21  and  CA_22 
REMARK    6  A    between atoms: CA_22  and  CB_25 
REMARK    7  A    between atoms: CA_22  and  C_23 
REMARK       I    between atoms: C_23  and  N_41 
REMARK    8  A    between atoms: CB_25  and  CG_26 
REMARK       I    between atoms: N_41  and  CA_42 
REMARK       I    between atoms: CA_42  and  C_43 
REMARK       I    between atoms: CA_42  and  CB_45 
REMARK       I    between atoms: C_43  and  N_61 
REMARK       I    between atoms: CB_45  and  CG_46 
REMARK    9  A    between atoms: N_61  and  CA_62 
REMARK   10  A    between atoms: CA_62  and  C_63 
REMARK   11  A    between atoms: CA_62  and  CB_65 
REMARK       I    between atoms: C_63  and  N_83 
REMARK   12  A    between atoms: CB_65  and  CG_66 
REMARK   13  A    between atoms: CG_66  and  CD_67 
REMARK   14  A    between atoms: CD_67  and  CE_68 
REMARK   15  A    between atoms: CE_68  and  NZ_69 
REMARK   16  A    between atoms: N_83  and  CA_84 
REMARK   17  A    between atoms: CA_84  and  C_85 
REMARK   18  A    between atoms: CA_84  and  CB_87 
REMARK   19  A    between atoms: CB_87  and  CG_88 
REMARK       I    between atoms: CG_88  and  ND2_95 
ROOT
ATOM      1  C   PHE A   2      -4.665  25.342  -2.093  0.60  1.91     0.597 C 
ATOM      2  O   PHE A   2      -4.624  24.880  -0.954 -0.57  1.66    -0.568 OA
ATOM      3  N   PHE A   3      -5.685  26.136  -2.510 -0.42  1.82    -0.416 N 
ATOM      4  CA  PHE A   3      -6.857  26.253  -1.681 -0.00  1.91    -0.002 C 
ATOM      5  C   PHE A   3      -7.981  25.284  -1.962  0.60  1.91     0.597 C 
ATOM      6  O   PHE A   3      -8.195  24.306  -1.250 -0.57  1.66    -0.568 OA
ATOM      7  CB  PHE A   3      -7.426  27.676  -1.767 -0.03  1.91    -0.034 C 
ATOM      8  CG  PHE A   3      -8.010  28.030  -0.447  0.01  1.91     0.012 A 
ATOM      9  CD1 PHE A   3      -7.165  28.522   0.521 -0.13  1.91    -0.126 A 
ATOM     10  CD2 PHE A   3      -9.346  27.872  -0.158 -0.13  1.91    -0.126 A 
ATOM     11  CE1 PHE A   3      -7.638  28.871   1.760 -0.17  1.91    -0.170 A 
ATOM     12  CE2 PHE A   3      -9.825  28.221   1.084 -0.17  1.91    -0.170 A 
ATOM     13  CZ  PHE A   3      -8.973  28.722   2.041 -0.11  1.91    -0.107 A 
ATOM     14  HZ  PHE A   3      -9.326  28.979   2.946  0.13  1.46     0.130 H 
ATOM     15  HA  PHE A   3      -6.555  26.077  -0.711  0.10  1.39     0.098 H 
ATOM     16  HE1 PHE A   3      -7.004  29.233   2.456  0.14  1.46     0.143 H 
ATOM     17  HE2 PHE A   3     -10.817  28.105   1.290  0.14  1.46     0.143 H 
ATOM     18  H   PHE A   3      -5.533  26.600  -3.404  0.27  0.60     0.272 HD
ATOM     19  HD2 PHE A   3      -9.967  27.505  -0.848  0.13  1.46     0.133 H 
ATOM     20  HD1 PHE A   3      -6.189  28.630   0.320  0.13  1.46     0.133 H 
ATOM     21  HB3 PHE A   3      -8.131  27.672  -2.431  0.03  1.49     0.029 H 
ATOM     22  HB2 PHE A   3      -6.690  28.276  -1.957  0.03  1.49     0.029 H 
ATOM     23  N   LYS A   4      -8.653  25.454  -3.124 -0.35  1.82    -0.348 N 
ATOM     24  H   LYS A   4      -8.224  26.093  -3.787  0.27  0.60     0.275 HD
ENDROOT
BRANCH  23  25
ATOM     25  CA  LYS A   4      -9.886  24.731  -3.318 -0.24  1.91    -0.240 C 
ATOM     26  HA  LYS A   4     -10.027  24.116  -2.536  0.14  1.39     0.143 H 
BRANCH  25  27
ATOM     27  C   LYS A   4      -9.778  23.941  -4.562  0.73  1.91     0.734 C 
ATOM     28  N   ASN A   5      -8.994  24.416  -5.537 -0.38  1.82    -0.382 N 
ATOM     29  H   ASN A   5      -8.530  25.294  -5.351  0.27  0.60     0.268 HD
ATOM     30  O   LYS A   4     -10.403  22.899  -4.695 -0.59  1.66    -0.589 OA
BRANCH  28  31
ATOM     31  CA  ASN A   5      -8.901  23.634  -6.726 -0.21  1.91    -0.208 C 
ATOM     32  HA  ASN A   5      -9.454  22.817  -6.605  0.14  1.39     0.136 H 
BRANCH  31  33
ATOM     33  C   ASN A   5      -7.456  23.171  -6.830  0.81  1.91     0.805 C 
ATOM     34  OXT ASN A   5      -7.048  22.310  -6.006 -0.81  1.66    -0.815 OA
ATOM     35  O   ASN A   5      -6.742  23.674  -7.738 -0.81  1.66    -0.815 OA
ENDBRANCH  31  33
BRANCH  31  36
ATOM     36  CB  ASN A   5      -9.246  24.430  -7.997 -0.23  1.91    -0.230 C 
ATOM     37  HB2 ASN A   5      -8.611  25.169  -8.084  0.10  1.49     0.102 H 
ATOM     38  HB3 ASN A   5      -9.231  23.818  -8.762  0.10  1.49     0.102 H 
BRANCH  36  39
ATOM     39  CG  ASN A   5     -10.653  25.005  -7.855  0.72  1.91     0.715 C 
ATOM     40  OD1 ASN A   5     -11.615  24.277  -7.617 -0.60  1.66    -0.601 OA
ATOM     41  ND2 ASN A   5     -10.779  26.353  -8.000 -0.91  1.82    -0.908 N 
ATOM     42 1HD2 ASN A   5      -9.964  26.892  -8.195  0.41  0.60     0.415 HD
ATOM     43 2HD2 ASN A   5     -11.663  26.769  -7.912  0.41  0.60     0.415 HD
ENDBRANCH  36  39
ENDBRANCH  31  36
ENDBRANCH  28  31
ENDBRANCH  25  27
BRANCH  25  44
ATOM     44  CB  LYS A   4     -11.122  25.637  -3.416 -0.01  1.91    -0.009 C 
ATOM     45  HB3 LYS A   4     -11.443  25.623  -4.352  0.04  1.49     0.036 H 
ATOM     46  HB2 LYS A   4     -10.862  26.548  -3.138  0.04  1.49     0.036 H 
BRANCH  44  47
ATOM     47  CG  LYS A   4     -12.254  25.159  -2.509  0.02  1.91     0.019 C 
ATOM     48  HG2 LYS A   4     -11.971  24.302  -2.062  0.01  1.49     0.010 H 
ATOM     49  HG3 LYS A   4     -12.413  25.851  -1.796  0.01  1.49     0.010 H 
BRANCH  47  50
ATOM     50  CD  LYS A   4     -13.562  24.913  -3.253 -0.05  1.91    -0.048 C 
ATOM     51  HD2 LYS A   4     -13.862  23.974  -3.074  0.06  1.49     0.062 H 
ATOM     52  HD3 LYS A   4     -14.254  25.550  -2.907  0.06  1.49     0.062 H 
BRANCH  50  53
ATOM     53  CE  LYS A   4     -13.449  25.102  -4.764 -0.01  1.91    -0.014 C 
ATOM     54  HE2 LYS A   4     -14.226  25.638  -5.079  0.11  1.10     0.114 H 
ATOM     55  HE3 LYS A   4     -12.600  25.582  -4.964  0.11  1.10     0.114 H 
BRANCH  53  56
ATOM     56  NZ  LYS A   4     -13.447  23.784  -5.436 -0.39  1.82    -0.385 N 
ATOM     57  HZ2 LYS A   4     -13.752  23.080  -4.794  0.34  0.60     0.340 HD
ATOM     58  HZ3 LYS A   4     -12.521  23.568  -5.749  0.34  0.60     0.340 HD
ATOM     59  HZ1 LYS A   4     -14.065  23.807  -6.223  0.34  0.60     0.340 HD
ENDBRANCH  53  56
ENDBRANCH  50  53
ENDBRANCH  47  50
ENDBRANCH  44  47
ENDBRANCH  25  44
ENDBRANCH  23  25
BRANCH   1  60
ATOM     60  CA  PHE A   2      -3.467  25.216  -2.988 -0.00  1.91    -0.002 C 
ATOM     61  HA  PHE A   2      -2.917  26.038  -2.855  0.10  1.39     0.098 H 
BRANCH  60  62
ATOM     62  CB  PHE A   2      -3.926  24.952  -4.437 -0.03  1.91    -0.034 C 
ATOM     63  HB2 PHE A   2      -3.653  24.027  -4.668  0.03  1.49     0.029 H 
ATOM     64  HB3 PHE A   2      -4.913  25.044  -4.453  0.03  1.49     0.029 H 
BRANCH  62  65
ATOM     65  CG  PHE A   2      -3.348  25.882  -5.450  0.01  1.91     0.012 A 
ATOM     66  CD2 PHE A   2      -2.553  25.408  -6.469 -0.13  1.91    -0.126 A 
ATOM     67  CE2 PHE A   2      -2.002  26.270  -7.387 -0.17  1.91    -0.170 A 
ATOM     68  HD2 PHE A   2      -2.374  24.423  -6.542  0.13  1.46     0.133 H 
ATOM     69  HE2 PHE A   2      -1.412  25.903  -8.130  0.14  1.46     0.143 H 
ATOM     70  CZ  PHE A   2      -2.249  27.617  -7.298 -0.11  1.91    -0.107 A 
ATOM     71  HZ  PHE A   2      -1.850  28.252  -7.963  0.13  1.46     0.130 H 
ATOM     72  CE1 PHE A   2      -3.049  28.099  -6.286 -0.17  1.91    -0.170 A 
ATOM     73  HE1 PHE A   2      -3.238  29.090  -6.212  0.14  1.46     0.143 H 
ATOM     74  CD1 PHE A   2      -3.596  27.233  -5.371 -0.13  1.91    -0.126 A 
ATOM     75  HD1 PHE A   2      -4.180  27.591  -4.643  0.13  1.46     0.133 H 
ENDBRANCH  62  65
ENDBRANCH  60  62
BRANCH  60  76
ATOM     76  N   PHE A   2      -2.703  24.104  -2.515 -0.42  1.82    -0.416 N 
ATOM     77  H   PHE A   2      -3.088  23.223  -2.157  0.27  0.60     0.272 HD
ATOM     78  C   HIS A   1      -1.360  24.173  -2.520  0.72  1.91     0.721 C 
ATOM     79  O   HIS A   1      -0.753  25.173  -2.898 -0.60  1.66    -0.601 OA
BRANCH  78  80
ATOM     80  CA  HIS A   1      -0.626  22.970  -2.038  0.06  1.91     0.058 C 
ATOM     81  HA  HIS A   1       0.053  23.244  -1.352  0.10  1.10     0.105 H 
BRANCH  80  82
ATOM     82  CB  HIS A   1       0.051  22.295  -3.245  0.05  1.91     0.048 C 
ATOM     83  HB3 HIS A   1      -0.243  22.760  -4.081  0.05  1.49     0.053 H 
ATOM     84  HB2 HIS A   1      -0.234  21.336  -3.282  0.05  1.49     0.053 H 
BRANCH  82  85
ATOM     85  CG  HIS A   1       1.551  22.342  -3.178 -0.02  1.91    -0.024 A 
ATOM     86  CD2 HIS A   1       2.441  21.460  -2.646 -0.14  1.91    -0.143 A 
ATOM     87  NE2 HIS A   1       3.738  21.912  -2.820 -0.17  1.82    -0.174 N 
ATOM     88  HD2 HIS A   1       2.192  20.591  -2.185  0.25  1.41     0.249 H 
ATOM     89  HE2 HIS A   1       4.558  21.475  -2.534  0.39  0.60     0.392 HD
ATOM     90  CE1 HIS A   1       3.607  23.062  -3.456 -0.00  1.91    -0.001 A 
ATOM     91  HE1 HIS A   1       4.377  23.657  -3.741  0.26  1.36     0.265 H 
ATOM     92  ND1 HIS A   1       2.307  23.370  -3.698 -0.15  1.82    -0.151 N 
ATOM     93  HD1 HIS A   1       1.986  24.172  -4.153  0.38  0.60     0.382 HD
ENDBRANCH  82  85
ENDBRANCH  80  82
BRANCH  80  94
ATOM     94  N   HIS A   1      -1.572  22.041  -1.380  0.26  1.82     0.256 N 
ATOM     95  H   HIS A   1      -1.104  21.568  -0.635  0.17  0.60     0.170 HD
ATOM     96  H3  HIS A   1      -1.897  21.375  -2.051  0.17  0.60     0.170 HD
ATOM     97  H2  HIS A   1      -2.345  22.561  -1.018  0.17  0.60     0.170 HD
ENDBRANCH  80  94
ENDBRANCH  78  80
ENDBRANCH  60  76
ENDBRANCH   1  60
TORSDOF 23
ENDMDL
