REMARK  19 active torsions:
REMARK  status: ('A' for Active; 'I' for Inactive)
REMARK    1  A    between atoms: N_1  and  CA_2 
REMARK    2  A    between atoms: CA_2  and  C_3 
REMARK    3  A    between atoms: CA_2  and  CB_6 
REMARK       I    between atoms: C_3  and  N_21 
REMARK    4  A    between atoms: CG_5  and  CB_6 
REMARK    5  A    between atoms: N_21  and  CA_22 
REMARK    6  A    between atoms: CA_22  and  CB_25 
REMARK    7  A    between atoms: CA_22  and  C_23 
REMARK       I    between atoms: C_23  and  N_41 
REMARK    8  A    between atoms: CB_25  and  CG_26 
REMARK       I    between atoms: N_41  and  CA_42 
REMARK       I    between atoms: CA_42  and  C_43 
REMARK       I    between atoms: CA_42  and  CB_45 
REMARK       I    between atoms: C_43  and  N_61 
REMARK       I    between atoms: CB_45  and  CG_46 
REMARK    9  A    between atoms: N_61  and  CA_62 
REMARK   10  A    between atoms: CA_62  and  C_63 
REMARK   11  A    between atoms: CA_62  and  CB_65 
REMARK       I    between atoms: C_63  and  N_83 
REMARK   12  A    between atoms: CB_65  and  CG_66 
REMARK   13  A    between atoms: CG_66  and  CD_67 
REMARK   14  A    between atoms: CD_67  and  CE_68 
REMARK   15  A    between atoms: CE_68  and  NZ_69 
REMARK   16  A    between atoms: N_83  and  CA_84 
REMARK   17  A    between atoms: CA_84  and  C_85 
REMARK   18  A    between atoms: CA_84  and  CB_87 
REMARK   19  A    between atoms: CB_87  and  CG_88 
REMARK       I    between atoms: CG_88  and  ND2_95 
ROOT
ATOM      1  C   PHE A   2      -5.204  23.409  -5.639  0.60  1.91     0.597 C 
ATOM      2  O   PHE A   2      -5.306  22.411  -4.928 -0.57  1.66    -0.568 OA
ATOM      3  N   PHE A   3      -6.268  24.209  -5.911 -0.42  1.82    -0.416 N 
ATOM      4  CA  PHE A   3      -7.587  23.755  -5.552 -0.00  1.91    -0.002 C 
ATOM      5  C   PHE A   3      -8.351  22.997  -6.611  0.60  1.91     0.597 C 
ATOM      6  O   PHE A   3      -8.473  21.775  -6.581 -0.57  1.66    -0.568 OA
ATOM      7  CB  PHE A   3      -8.451  24.942  -5.104 -0.03  1.91    -0.034 C 
ATOM      8  CG  PHE A   3      -9.381  24.473  -4.043  0.01  1.91     0.012 A 
ATOM      9  CD1 PHE A   3      -8.917  24.437  -2.748 -0.13  1.91    -0.126 A 
ATOM     10  CD2 PHE A   3     -10.668  24.067  -4.309 -0.13  1.91    -0.126 A 
ATOM     11  CE1 PHE A   3      -9.723  24.018  -1.721 -0.17  1.91    -0.170 A 
ATOM     12  CE2 PHE A   3     -11.481  23.646  -3.281 -0.17  1.91    -0.170 A 
ATOM     13  CZ  PHE A   3     -11.010  23.623  -1.989 -0.11  1.91    -0.107 A 
ATOM     14  HZ  PHE A   3     -11.606  23.318  -1.240  0.13  1.46     0.130 H 
ATOM     15  HA  PHE A   3      -7.474  23.111  -4.755  0.10  1.39     0.098 H 
ATOM     16  HE1 PHE A   3      -9.366  24.001  -0.777  0.14  1.46     0.143 H 
ATOM     17  HE2 PHE A   3     -12.435  23.350  -3.485  0.14  1.46     0.143 H 
ATOM     18  H   PHE A   3      -6.039  25.093  -6.361  0.27  0.60     0.272 HD
ATOM     19  HD2 PHE A   3     -11.013  24.078  -5.246  0.13  1.46     0.133 H 
ATOM     20  HD1 PHE A   3      -7.977  24.722  -2.550  0.13  1.46     0.133 H 
ATOM     21  HB3 PHE A   3      -8.969  25.235  -5.868  0.03  1.49     0.029 H 
ATOM     22  HB2 PHE A   3      -7.860  25.612  -4.730  0.03  1.49     0.029 H 
ATOM     23  N   LYS A   4      -8.769  23.707  -7.684 -0.35  1.82    -0.348 N 
ATOM     24  H   LYS A   4      -8.373  24.638  -7.773  0.27  0.60     0.275 HD
ENDROOT
BRANCH  23  25
ATOM     25  CA  LYS A   4      -9.716  23.098  -8.586 -0.24  1.91    -0.240 C 
ATOM     26  HA  LYS A   4     -10.060  22.251  -8.170  0.14  1.39     0.143 H 
BRANCH  25  27
ATOM     27  C   LYS A   4      -9.023  22.786  -9.854  0.73  1.91     0.734 C 
ATOM     28  N   ASN A   5      -9.162  21.553 -10.354 -0.38  1.82    -0.382 N 
ATOM     29  H   ASN A   5      -9.735  20.915  -9.821  0.27  0.60     0.268 HD
ATOM     30  O   LYS A   4      -8.331  23.627 -10.409 -0.59  1.66    -0.589 OA
BRANCH  28  31
ATOM     31  CA  ASN A   5      -8.488  21.277 -11.581 -0.21  1.91    -0.208 C 
ATOM     32  HA  ASN A   5      -8.576  22.073 -12.170  0.14  1.39     0.136 H 
BRANCH  31  33
ATOM     33  C   ASN A   5      -9.255  20.149 -12.254  0.81  1.91     0.805 C 
ATOM     34  OXT ASN A   5      -8.867  19.762 -13.389 -0.81  1.66    -0.815 OA
ATOM     35  O   ASN A   5     -10.239  19.659 -11.639 -0.81  1.66    -0.815 OA
ENDBRANCH  31  33
BRANCH  31  36
ATOM     36  CB  ASN A   5      -7.034  20.818 -11.377 -0.23  1.91    -0.230 C 
ATOM     37  HB2 ASN A   5      -7.019  20.129 -10.682  0.10  1.49     0.102 H 
ATOM     38  HB3 ASN A   5      -6.683  20.504 -12.236  0.10  1.49     0.102 H 
BRANCH  36  39
ATOM     39  CG  ASN A   5      -6.200  22.007 -10.909  0.72  1.91     0.715 C 
ATOM     40  OD1 ASN A   5      -5.554  22.683 -11.708 -0.60  1.66    -0.601 OA
ATOM     41  ND2 ASN A   5      -6.215  22.276  -9.574 -0.91  1.82    -0.908 N 
ATOM     42 1HD2 ASN A   5      -6.755  21.691  -8.974  0.41  0.60     0.415 HD
ATOM     43 2HD2 ASN A   5      -5.698  23.034  -9.226  0.41  0.60     0.415 HD
ENDBRANCH  36  39
ENDBRANCH  31  36
ENDBRANCH  28  31
ENDBRANCH  25  27
BRANCH  25  44
ATOM     44  CB  LYS A   4     -10.931  23.984  -8.895 -0.01  1.91    -0.009 C 
ATOM     45  HB3 LYS A   4     -11.513  23.502  -9.533  0.04  1.49     0.036 H 
ATOM     46  HB2 LYS A   4     -10.606  24.835  -9.276  0.04  1.49     0.036 H 
BRANCH  44  47
ATOM     47  CG  LYS A   4     -11.744  24.296  -7.640  0.02  1.91     0.019 C 
ATOM     48  HG2 LYS A   4     -12.225  23.460  -7.349  0.01  1.49     0.010 H 
ATOM     49  HG3 LYS A   4     -11.114  24.571  -6.905  0.01  1.49     0.010 H 
BRANCH  47  50
ATOM     50  CD  LYS A   4     -12.771  25.404  -7.845 -0.05  1.91    -0.048 C 
ATOM     51  HD2 LYS A   4     -12.336  26.158  -8.342  0.06  1.49     0.062 H 
ATOM     52  HD3 LYS A   4     -13.529  25.044  -8.393  0.06  1.49     0.062 H 
BRANCH  50  53
ATOM     53  CE  LYS A   4     -13.342  25.955  -6.540 -0.01  1.91    -0.014 C 
ATOM     54  HE2 LYS A   4     -14.162  26.480  -6.746  0.11  1.10     0.114 H 
ATOM     55  HE3 LYS A   4     -13.566  25.192  -5.941  0.11  1.10     0.114 H 
BRANCH  53  56
ATOM     56  NZ  LYS A   4     -12.343  26.827  -5.884 -0.39  1.82    -0.385 N 
ATOM     57  HZ2 LYS A   4     -11.670  26.264  -5.403  0.34  0.60     0.340 HD
ATOM     58  HZ3 LYS A   4     -12.801  27.429  -5.228  0.34  0.60     0.340 HD
ATOM     59  HZ1 LYS A   4     -11.877  27.383  -6.574  0.34  0.60     0.340 HD
ENDBRANCH  53  56
ENDBRANCH  50  53
ENDBRANCH  47  50
ENDBRANCH  44  47
ENDBRANCH  25  44
ENDBRANCH  23  25
BRANCH   1  60
ATOM     60  CA  PHE A   2      -3.844  23.893  -6.048 -0.00  1.91    -0.002 C 
ATOM     61  HA  PHE A   2      -3.977  24.534  -6.801  0.10  1.39     0.098 H 
BRANCH  60  62
ATOM     62  CB  PHE A   2      -2.934  22.686  -6.359 -0.03  1.91    -0.034 C 
ATOM     63  HB2 PHE A   2      -2.029  23.043  -6.552  0.03  1.49     0.029 H 
ATOM     64  HB3 PHE A   2      -2.922  22.112  -5.551  0.03  1.49     0.029 H 
BRANCH  62  65
ATOM     65  CG  PHE A   2      -3.374  21.860  -7.520  0.01  1.91     0.012 A 
ATOM     66  CD2 PHE A   2      -4.059  20.682  -7.327 -0.13  1.91    -0.126 A 
ATOM     67  CE2 PHE A   2      -4.442  19.910  -8.398 -0.17  1.91    -0.170 A 
ATOM     68  HD2 PHE A   2      -4.280  20.383  -6.394  0.13  1.46     0.133 H 
ATOM     69  HE2 PHE A   2      -4.943  19.039  -8.236  0.14  1.46     0.143 H 
ATOM     70  CZ  PHE A   2      -4.150  20.316  -9.676 -0.11  1.91    -0.107 A 
ATOM     71  HZ  PHE A   2      -4.426  19.759 -10.462  0.13  1.46     0.130 H 
ATOM     72  CE1 PHE A   2      -3.472  21.497  -9.878 -0.17  1.91    -0.170 A 
ATOM     73  HE1 PHE A   2      -3.253  21.806 -10.816  0.14  1.46     0.143 H 
ATOM     74  CD1 PHE A   2      -3.091  22.264  -8.804 -0.13  1.91    -0.126 A 
ATOM     75  HD1 PHE A   2      -2.603  23.122  -8.961  0.13  1.46     0.133 H 
ENDBRANCH  62  65
ENDBRANCH  60  62
BRANCH  60  76
ATOM     76  N   PHE A   2      -3.309  24.628  -4.945 -0.42  1.82    -0.416 N 
ATOM     77  H   PHE A   2      -2.825  24.223  -4.135  0.27  0.60     0.272 HD
ATOM     78  C   HIS A   1      -3.426  25.967  -4.922  0.72  1.91     0.721 C 
ATOM     79  O   HIS A   1      -4.001  26.594  -5.810 -0.60  1.66    -0.601 OA
BRANCH  78  80
ATOM     80  CA  HIS A   1      -2.824  26.672  -3.756  0.06  1.91     0.058 C 
ATOM     81  HA  HIS A   1      -2.314  27.474  -4.076  0.10  1.10     0.105 H 
BRANCH  80  82
ATOM     82  CB  HIS A   1      -1.899  25.689  -3.016  0.05  1.91     0.048 C 
ATOM     83  HB3 HIS A   1      -2.390  24.828  -2.874  0.05  1.49     0.053 H 
ATOM     84  HB2 HIS A   1      -1.655  26.080  -2.127  0.05  1.49     0.053 H 
BRANCH  82  85
ATOM     85  CG  HIS A   1      -0.633  25.395  -3.769 -0.02  1.91    -0.024 A 
ATOM     86  CD2 HIS A   1      -0.331  24.387  -4.633 -0.14  1.91    -0.143 A 
ATOM     87  NE2 HIS A   1       0.966  24.518  -5.100 -0.17  1.82    -0.174 N 
ATOM     88  HD2 HIS A   1      -0.966  23.642  -4.900  0.25  1.41     0.249 H 
ATOM     89  HE2 HIS A   1       1.429  23.934  -5.724  0.39  0.60     0.392 HD
ATOM     90  CE1 HIS A   1       1.424  25.606  -4.508 -0.00  1.91    -0.001 A 
ATOM     91  HE1 HIS A   1       2.355  25.987  -4.637  0.26  1.36     0.265 H 
ATOM     92  ND1 HIS A   1       0.500  26.176  -3.693 -0.15  1.82    -0.151 N 
ATOM     93  HD1 HIS A   1       0.630  26.984  -3.161  0.38  0.60     0.382 HD
ENDBRANCH  82  85
ENDBRANCH  80  82
BRANCH  80  94
ATOM     94  N   HIS A   1      -3.898  27.157  -2.860  0.26  1.82     0.256 N 
ATOM     95  H   HIS A   1      -4.306  27.981  -3.252  0.17  0.60     0.170 HD
ATOM     96  H3  HIS A   1      -3.508  27.367  -1.964  0.17  0.60     0.170 HD
ATOM     97  H2  HIS A   1      -4.594  26.446  -2.768  0.17  0.60     0.170 HD
ENDBRANCH  80  94
ENDBRANCH  78  80
ENDBRANCH  60  76
ENDBRANCH   1  60
TORSDOF 23
