REMARK  19 active torsions:
REMARK  status: ('A' for Active; 'I' for Inactive)
REMARK    1  A    between atoms: N_1  and  CA_2 
REMARK    2  A    between atoms: CA_2  and  C_3 
REMARK    3  A    between atoms: CA_2  and  CB_6 
REMARK       I    between atoms: C_3  and  N_21 
REMARK    4  A    between atoms: CG_5  and  CB_6 
REMARK    5  A    between atoms: N_21  and  CA_22 
REMARK    6  A    between atoms: CA_22  and  C_23 
REMARK    7  A    between atoms: CA_22  and  CB_25 
REMARK       I    between atoms: C_23  and  N_41 
REMARK    8  A    between atoms: CB_25  and  CG_26 
REMARK       I    between atoms: N_41  and  CA_42 
REMARK       I    between atoms: CA_42  and  C_43 
REMARK       I    between atoms: CA_42  and  CB_45 
REMARK       I    between atoms: C_43  and  N_61 
REMARK       I    between atoms: CB_45  and  CG_46 
REMARK    9  A    between atoms: N_61  and  CA_62 
REMARK   10  A    between atoms: CA_62  and  CB_65 
REMARK   11  A    between atoms: CA_62  and  C_63 
REMARK       I    between atoms: C_63  and  N_83 
REMARK   12  A    between atoms: CB_65  and  CG_66 
REMARK   13  A    between atoms: CG_66  and  CD_67 
REMARK   14  A    between atoms: CD_67  and  CE_68 
REMARK   15  A    between atoms: CE_68  and  NZ_69 
REMARK   16  A    between atoms: N_83  and  CA_84 
REMARK   17  A    between atoms: CA_84  and  CB_87 
REMARK   18  A    between atoms: CA_84  and  C_85 
REMARK   19  A    between atoms: CB_87  and  CG_88 
REMARK       I    between atoms: CG_88  and  ND2_95 
ROOT
ATOM      1  C   PHE A   2      -5.119  24.583  -6.434  0.60  1.91     0.597 C 
ATOM      2  O   PHE A   2      -5.532  25.542  -7.084 -0.57  1.66    -0.568 OA
ATOM      3  N   PHE A   3      -5.960  23.718  -5.832 -0.42  1.82    -0.416 N 
ATOM      4  CA  PHE A   3      -7.379  23.949  -5.884 -0.00  1.91    -0.002 C 
ATOM      5  C   PHE A   3      -7.914  24.161  -4.507  0.60  1.91     0.597 C 
ATOM      6  O   PHE A   3      -7.324  23.735  -3.516 -0.57  1.66    -0.568 OA
ATOM      7  CB  PHE A   3      -8.215  22.802  -6.482 -0.03  1.91    -0.034 C 
ATOM      8  CG  PHE A   3      -8.287  22.941  -7.963  0.01  1.91     0.012 A 
ATOM      9  CD1 PHE A   3      -7.294  22.468  -8.784 -0.13  1.91    -0.126 A 
ATOM     10  CD2 PHE A   3      -9.385  23.550  -8.529 -0.13  1.91    -0.126 A 
ATOM     11  CE1 PHE A   3      -7.399  22.608 -10.149 -0.17  1.91    -0.170 A 
ATOM     12  CE2 PHE A   3      -9.497  23.694  -9.891 -0.17  1.91    -0.170 A 
ATOM     13  CZ  PHE A   3      -8.498  23.221 -10.705 -0.11  1.91    -0.107 A 
ATOM     14  HZ  PHE A   3      -8.564  23.319 -11.701  0.13  1.46     0.130 H 
ATOM     15  HA  PHE A   3      -7.520  24.806  -6.395  0.10  1.39     0.098 H 
ATOM     16  HE1 PHE A   3      -6.656  22.256 -10.744  0.14  1.46     0.143 H 
ATOM     17  HE2 PHE A   3     -10.313  24.149 -10.286  0.14  1.46     0.143 H 
ATOM     18  H   PHE A   3      -5.503  22.928  -5.363  0.27  0.60     0.272 HD
ATOM     19  HD2 PHE A   3     -10.120  23.896  -7.932  0.13  1.46     0.133 H 
ATOM     20  HD1 PHE A   3      -6.492  22.020  -8.397  0.13  1.46     0.133 H 
ATOM     21  HB3 PHE A   3      -9.114  22.872  -6.115  0.03  1.49     0.029 H 
ATOM     22  HB2 PHE A   3      -7.764  21.966  -6.266  0.03  1.49     0.029 H 
ATOM     23  N   LYS A   4      -9.065  24.862  -4.441 -0.35  1.82    -0.348 N 
ATOM     24  H   LYS A   4      -9.405  25.169  -5.396  0.27  0.60     0.275 HD
ENDROOT
BRANCH   1  25
ATOM     25  CA  PHE A   2      -3.647  24.332  -6.312 -0.00  1.91    -0.002 C 
ATOM     26  HA  PHE A   2      -3.216  24.737  -7.107  0.10  1.39     0.098 H 
BRANCH  25  27
ATOM     27  CB  PHE A   2      -3.380  22.821  -6.183 -0.03  1.91    -0.034 C 
ATOM     28  HB2 PHE A   2      -2.435  22.702  -6.042  0.03  1.49     0.029 H 
ATOM     29  HB3 PHE A   2      -3.956  22.480  -5.490  0.03  1.49     0.029 H 
BRANCH  27  30
ATOM     30  CG  PHE A   2      -3.759  22.191  -7.480  0.01  1.91     0.012 A 
ATOM     31  CD2 PHE A   2      -4.685  21.175  -7.528 -0.13  1.91    -0.126 A 
ATOM     32  CE2 PHE A   2      -5.024  20.590  -8.725 -0.17  1.91    -0.170 A 
ATOM     33  HD2 PHE A   2      -5.118  20.857  -6.679  0.13  1.46     0.133 H 
ATOM     34  HE2 PHE A   2      -5.716  19.844  -8.743  0.14  1.46     0.143 H 
ATOM     35  CZ  PHE A   2      -4.430  21.015  -9.889 -0.11  1.91    -0.107 A 
ATOM     36  CE1 PHE A   2      -3.489  22.015  -9.848 -0.17  1.91    -0.170 A 
ATOM     37  HZ  PHE A   2      -4.680  20.599 -10.767  0.13  1.46     0.130 H 
ATOM     38  HE1 PHE A   2      -3.041  22.332 -10.698  0.14  1.46     0.143 H 
ATOM     39  CD1 PHE A   2      -3.152  22.593  -8.647 -0.13  1.91    -0.126 A 
ATOM     40  HD1 PHE A   2      -2.457  23.312  -8.626  0.13  1.46     0.133 H 
ENDBRANCH  27  30
ENDBRANCH  25  27
BRANCH  25  41
ATOM     41  N   PHE A   2      -3.235  25.082  -5.168 -0.42  1.82    -0.416 N 
ATOM     42  C   HIS A   1      -2.356  26.096  -5.276  0.72  1.91     0.721 C 
ATOM     43  O   HIS A   1      -1.848  26.422  -6.348 -0.60  1.66    -0.601 OA
ATOM     44  H   PHE A   2      -3.566  24.914  -4.198  0.27  0.60     0.272 HD
BRANCH  42  45
ATOM     45  CA  HIS A   1      -2.039  26.830  -4.017  0.06  1.91     0.058 C 
ATOM     46  HA  HIS A   1      -1.595  27.698  -4.238  0.10  1.10     0.105 H 
BRANCH  45  47
ATOM     47  N   HIS A   1      -3.305  27.142  -3.317  0.26  1.82     0.256 N 
ATOM     48  H2  HIS A   1      -3.862  27.737  -3.895  0.17  0.60     0.170 HD
ATOM     49  H3  HIS A   1      -3.797  26.292  -3.134  0.17  0.60     0.170 HD
ATOM     50  H   HIS A   1      -3.099  27.605  -2.456  0.17  0.60     0.170 HD
ENDBRANCH  45  47
BRANCH  45  51
ATOM     51  CB  HIS A   1      -1.151  25.945  -3.128  0.05  1.91     0.048 C 
ATOM     52  HB3 HIS A   1      -1.525  25.018  -3.118  0.05  1.49     0.053 H 
ATOM     53  HB2 HIS A   1      -1.150  26.315  -2.199  0.05  1.49     0.053 H 
BRANCH  51  54
ATOM     54  CG  HIS A   1       0.266  25.881  -3.616 -0.02  1.91    -0.024 A 
ATOM     55  CD2 HIS A   1       0.895  24.949  -4.380 -0.14  1.91    -0.143 A 
ATOM     56  HD2 HIS A   1       0.460  24.109  -4.747  0.25  1.41     0.249 H 
ATOM     57  NE2 HIS A   1       2.216  25.305  -4.591 -0.17  1.82    -0.174 N 
ATOM     58  HE2 HIS A   1       2.884  24.815  -5.100  0.39  0.60     0.392 HD
ATOM     59  CE1 HIS A   1       2.358  26.449  -3.947 -0.00  1.91    -0.001 A 
ATOM     60  HE1 HIS A   1       3.218  26.985  -3.903  0.26  1.36     0.265 H 
ATOM     61  ND1 HIS A   1       1.211  26.843  -3.339 -0.15  1.82    -0.151 N 
ATOM     62  HD1 HIS A   1       1.096  27.655  -2.810  0.38  0.60     0.382 HD
ENDBRANCH  51  54
ENDBRANCH  45  51
ENDBRANCH  42  45
ENDBRANCH  25  41
ENDBRANCH   1  25
BRANCH  23  63
ATOM     63  CA  LYS A   4      -9.761  25.165  -3.224 -0.24  1.91    -0.240 C 
ATOM     64  HA  LYS A   4      -9.113  25.176  -2.467  0.14  1.39     0.143 H 
BRANCH  63  65
ATOM     65  CB  LYS A   4     -10.578  26.464  -3.308 -0.01  1.91    -0.009 C 
ATOM     66  HB2 LYS A   4     -10.825  26.736  -2.392  0.04  1.49     0.036 H 
ATOM     67  HB3 LYS A   4     -10.025  27.151  -3.753  0.04  1.49     0.036 H 
BRANCH  65  68
ATOM     68  CG  LYS A   4     -11.863  26.279  -4.119  0.02  1.91     0.019 C 
ATOM     69  HG3 LYS A   4     -12.306  27.174  -4.234  0.01  1.49     0.010 H 
ATOM     70  HG2 LYS A   4     -12.485  25.676  -3.608  0.01  1.49     0.010 H 
BRANCH  68  71
ATOM     71  CD  LYS A   4     -11.621  25.671  -5.502 -0.05  1.91    -0.048 C 
ATOM     72  HD2 LYS A   4     -11.158  26.353  -6.074  0.06  1.49     0.062 H 
ATOM     73  HD3 LYS A   4     -11.024  24.871  -5.400  0.06  1.49     0.062 H 
BRANCH  71  74
ATOM     74  CE  LYS A   4     -12.898  25.230  -6.217 -0.01  1.91    -0.014 C 
ATOM     75  HE3 LYS A   4     -13.339  26.032  -6.608  0.11  1.10     0.114 H 
ATOM     76  HE2 LYS A   4     -13.500  24.795  -5.555  0.11  1.10     0.114 H 
BRANCH  74  77
ATOM     77  NZ  LYS A   4     -12.564  24.271  -7.294 -0.39  1.82    -0.385 N 
ATOM     78  HZ2 LYS A   4     -12.666  23.335  -6.954  0.34  0.60     0.340 HD
ATOM     79  HZ1 LYS A   4     -13.180  24.410  -8.070  0.34  0.60     0.340 HD
ATOM     80  HZ3 LYS A   4     -11.619  24.415  -7.590  0.34  0.60     0.340 HD
ENDBRANCH  74  77
ENDBRANCH  71  74
ENDBRANCH  68  71
ENDBRANCH  65  68
ENDBRANCH  63  65
BRANCH  63  81
ATOM     81  C   LYS A   4     -10.750  24.068  -3.013  0.73  1.91     0.734 C 
ATOM     82  O   LYS A   4     -10.957  23.219  -3.875 -0.59  1.66    -0.589 OA
ATOM     83  N   ASN A   5     -11.381  24.034  -1.831 -0.38  1.82    -0.382 N 
ATOM     84  H   ASN A   5     -11.113  24.758  -1.168  0.27  0.60     0.268 HD
BRANCH  83  85
ATOM     85  CA  ASN A   5     -12.351  23.007  -1.614 -0.21  1.91    -0.208 C 
ATOM     86  HA  ASN A   5     -12.041  22.184  -2.079  0.14  1.39     0.136 H 
BRANCH  85  87
ATOM     87  CB  ASN A   5     -12.655  22.798  -0.128 -0.23  1.91    -0.230 C 
ATOM     88  HB2 ASN A   5     -12.933  23.639   0.255  0.10  1.49     0.102 H 
ATOM     89  HB3 ASN A   5     -13.284  22.071  -0.038  0.10  1.49     0.102 H 
BRANCH  87  90
ATOM     90  CG  ASN A   5     -11.330  22.386   0.489  0.72  1.91     0.715 C 
ATOM     91  OD1 ASN A   5     -10.922  21.228   0.415 -0.60  1.66    -0.601 OA
ATOM     92  ND2 ASN A   5     -10.616  23.379   1.079 -0.91  1.82    -0.908 N 
ATOM     93 2HD2 ASN A   5      -9.742  23.168   1.493  0.41  0.60     0.415 HD
ATOM     94 1HD2 ASN A   5     -10.984  24.302   1.086  0.41  0.60     0.415 HD
ENDBRANCH  87  90
ENDBRANCH  85  87
BRANCH  85  95
ATOM     95  C   ASN A   5     -13.629  23.450  -2.315  0.81  1.91     0.805 C 
ATOM     96  OXT ASN A   5     -14.613  22.664  -2.304 -0.81  1.66    -0.815 OA
ATOM     97  O   ASN A   5     -13.636  24.579  -2.874 -0.81  1.66    -0.815 OA
ENDBRANCH  85  95
ENDBRANCH  83  85
ENDBRANCH  63  81
ENDBRANCH  23  63
TORSDOF 23
