MODEL 1
REMARK VINA RESULT:     -12.4      0.000      0.000
REMARK  16 active torsions:
REMARK  status: ('A' for Active; 'I' for Inactive)
REMARK    1  A    between atoms: CA_2  and  C_3 
REMARK       I    between atoms: C_3  and  N_17 
REMARK    2  A    between atoms: N_17  and  CA_18 
REMARK    3  A    between atoms: CA_18  and  CB_21 
REMARK    4  A    between atoms: CA_18  and  C_19 
REMARK       I    between atoms: C_19  and  N_33 
REMARK    5  A    between atoms: CB_21  and  CG2_23 
REMARK    6  A    between atoms: CB_21  and  CG1_22 
REMARK       I    between atoms: N_33  and  CA_34 
REMARK       I    between atoms: CA_34  and  C_35 
REMARK       I    between atoms: CA_34  and  CB_37 
REMARK       I    between atoms: C_35  and  N_49 
REMARK       I    between atoms: CB_37  and  CG2_39 
REMARK       I    between atoms: CB_37  and  CG1_38 
REMARK       I    between atoms: N_49  and  CA_50 
REMARK       I    between atoms: CA_50  and  C_51 
REMARK       I    between atoms: CA_50  and  CB_54 
REMARK       I    between atoms: C_51  and  N_67 
REMARK       I    between atoms: CG_53  and  CB_54 
REMARK       I    between atoms: N_67  and  CA_68 
REMARK       I    between atoms: CA_68  and  CB_71 
REMARK       I    between atoms: CA_68  and  C_69 
REMARK       I    between atoms: C_69  and  N_87 
REMARK       I    between atoms: CB_71  and  CG_72 
REMARK       I    between atoms: N_87  and  CA_88 
REMARK       I    between atoms: CA_88  and  C_89 
REMARK       I    between atoms: CA_88  and  CB_91 
REMARK       I    between atoms: C_89  and  N_107 
REMARK       I    between atoms: CB_91  and  CG_92 
REMARK       I    between atoms: N_107  and  CA_108 
REMARK       I    between atoms: CA_108  and  C_109 
REMARK       I    between atoms: CA_108  and  CB_111 
REMARK       I    between atoms: C_109  and  N_129 
REMARK       I    between atoms: CB_111  and  CG_112 
REMARK       I    between atoms: CG_112  and  CD_113 
REMARK       I    between atoms: CD_113  and  CE_114 
REMARK       I    between atoms: CE_114  and  NZ_115 
REMARK       I    between atoms: N_129  and  CA_130 
REMARK       I    between atoms: CA_130  and  C_131 
REMARK       I    between atoms: CA_130  and  CB_133 
REMARK       I    between atoms: C_131  and  N_143 
REMARK       I    between atoms: CB_133  and  CG_134 
REMARK       I    between atoms: CG_134  and  ND2_140 
REMARK       I    between atoms: N_143  and  CA_144 
REMARK       I    between atoms: CA_144  and  C_145 
REMARK       I    between atoms: CA_144  and  CB_147 
REMARK       I    between atoms: C_145  and  N_162 
REMARK       I    between atoms: CB_147  and  CG1_148 
REMARK       I    between atoms: CB_147  and  CG2_149 
REMARK       I    between atoms: CG1_148  and  CD1_150 
REMARK    7  A    between atoms: N_162  and  CA_163 
REMARK    8  A    between atoms: CA_163  and  C_164 
REMARK    9  A    between atoms: CA_163  and  CB_166 
REMARK       I    between atoms: C_164  and  N_178 
REMARK   10  A    between atoms: CB_166  and  CG1_167 
REMARK   11  A    between atoms: CB_166  and  CG2_168 
REMARK   12  A    between atoms: N_178  and  CA_179 
REMARK   13  A    between atoms: CA_179  and  CB_182 
REMARK   14  A    between atoms: CA_179  and  C_180 
REMARK   15  A    between atoms: CB_182  and  CG2_184 
REMARK   16  A    between atoms: CB_182  and  OG1_183 
ROOT
ATOM      1  C   VAL A   2       3.706  23.550  -3.196  0.60  1.91     0.597 C 
ATOM      2  O   VAL A   2       3.551  24.180  -2.150 -0.57  1.66    -0.568 OA
ATOM      3  N   VAL A   3       2.837  23.612  -4.221 -0.42  1.82    -0.416 N 
ATOM      4  CA  VAL A   3       1.635  24.381  -4.148 -0.09  1.91    -0.087 C 
ATOM      5  C   VAL A   3       0.550  23.480  -3.655  0.60  1.91     0.597 C 
ATOM      6  O   VAL A   3       0.600  22.266  -3.848 -0.57  1.66    -0.568 OA
ATOM      7  CB  VAL A   3       1.239  24.955  -5.477  0.30  1.91     0.298 C 
ATOM      8  CG1 VAL A   3       2.310  25.979  -5.889 -0.32  1.91    -0.319 C 
ATOM      9  CG2 VAL A   3       1.094  23.803  -6.486 -0.32  1.91    -0.319 C 
ATOM     10  HA  VAL A   3       1.764  25.115  -3.480  0.10  1.39     0.097 H 
ATOM     11 1HG1 VAL A   3       1.942  26.899  -5.777  0.08  1.49     0.079 H 
ATOM     12 1HG2 VAL A   3       0.124  23.647  -6.659  0.08  1.49     0.079 H 
ATOM     13  HB  VAL A   3       0.400  25.465  -5.371 -0.03  1.49    -0.030 H 
ATOM     14 2HG1 VAL A   3       3.113  25.862  -5.311  0.08  1.49     0.079 H 
ATOM     15 3HG1 VAL A   3       2.555  25.828  -6.844  0.08  1.49     0.079 H 
ATOM     16  H   VAL A   3       3.130  23.052  -5.051  0.27  0.60     0.272 HD
ATOM     17 3HG2 VAL A   3       1.557  24.056  -7.332  0.08  1.49     0.079 H 
ATOM     18 2HG2 VAL A   3       1.509  22.983  -6.100  0.08  1.49     0.079 H 
ATOM     19  N   HIS A   4      -0.452  24.056  -2.962 -0.35  1.82    -0.348 N 
ATOM     20  CA  HIS A   4      -1.537  23.266  -2.456 -0.14  1.91    -0.135 C 
ATOM     21  C   HIS A   4      -2.801  23.843  -3.006  0.73  1.91     0.734 C 
ATOM     22  O   HIS A   4      -2.847  25.010  -3.393 -0.59  1.66    -0.589 OA
ATOM     23  CG  HIS A   4      -1.723  24.635  -0.322 -0.00  1.91    -0.001 A 
ATOM     24  CB  HIS A   4      -1.640  23.263  -0.920 -0.04  1.91    -0.041 C 
ATOM     25  HB2 HIS A   4      -2.461  22.750  -0.652  0.08  1.49     0.081 H 
ATOM     26  HB3 HIS A   4      -0.832  22.801  -0.543  0.08  1.49     0.081 H 
ATOM     27  H   HIS A   4      -0.356  25.077  -2.844  0.27  0.60     0.275 HD
ATOM     28  HA  HIS A   4      -1.438  22.330  -2.788  0.12  1.39     0.121 H 
ATOM     29  CD2 HIS A   4      -0.740  25.421   0.198 -0.11  1.91    -0.114 A 
ATOM     30  HE2 HIS A   4      -0.780  27.355   1.063  0.39  0.60     0.391 HD
ATOM     31  HD1 HIS A   4      -3.786  25.091  -0.470  0.39  0.60     0.387 HD
ATOM     32  HD2 HIS A   4       0.241  25.165   0.248  0.23  1.41     0.232 H 
ATOM     33  CE1 HIS A   4      -2.556  26.536   0.391 -0.02  1.91    -0.017 A 
ATOM     34  ND1 HIS A   4      -2.888  25.359  -0.196 -0.15  1.82    -0.151 N 
ATOM     35  NE2 HIS A   4      -1.263  26.619   0.649 -0.17  1.82    -0.172 N 
ATOM     36  HE1 HIS A   4      -3.235  27.259   0.599  0.27  1.36     0.268 H 
ATOM     37  N   PHE A   5      -3.871  23.023  -3.057 -0.42  1.82    -0.416 N 
ATOM     38  CA  PHE A   5      -5.107  23.456  -3.643 -0.00  1.91    -0.002 C 
ATOM     39  C   PHE A   5      -5.930  24.009  -2.525  0.60  1.91     0.597 C 
ATOM     40  O   PHE A   5      -6.120  23.355  -1.500 -0.57  1.66    -0.568 OA
ATOM     41  CB  PHE A   5      -5.865  22.277  -4.281 -0.03  1.91    -0.034 C 
ATOM     42  CG  PHE A   5      -6.821  22.791  -5.301  0.01  1.91     0.012 A 
ATOM     43  CD1 PHE A   5      -6.374  23.046  -6.578 -0.13  1.91    -0.126 A 
ATOM     44  CD2 PHE A   5      -8.146  23.005  -5.001 -0.13  1.91    -0.126 A 
ATOM     45  CE1 PHE A   5      -7.232  23.515  -7.544 -0.17  1.91    -0.170 A 
ATOM     46  CE2 PHE A   5      -9.009  23.474  -5.963 -0.17  1.91    -0.170 A 
ATOM     47  CZ  PHE A   5      -8.553  23.729  -7.235 -0.11  1.91    -0.107 A 
ATOM     48  HZ  PHE A   5      -9.182  24.071  -7.940  0.13  1.46     0.130 H 
ATOM     49  HA  PHE A   5      -4.896  24.211  -4.256  0.10  1.39     0.098 H 
ATOM     50  HE1 PHE A   5      -6.885  23.700  -8.474  0.14  1.46     0.143 H 
ATOM     51  HE2 PHE A   5      -9.987  23.634  -5.728  0.14  1.46     0.143 H 
ATOM     52  H   PHE A   5      -3.707  22.088  -2.643  0.27  0.60     0.272 HD
ATOM     53  HD2 PHE A   5      -8.484  22.817  -4.077  0.13  1.46     0.133 H 
ATOM     54  HD1 PHE A   5      -5.413  22.887  -6.810  0.13  1.46     0.133 H 
ATOM     55  HB3 PHE A   5      -6.367  21.835  -3.575  0.03  1.49     0.029 H 
ATOM     56  HB2 PHE A   5      -5.211  21.710  -4.722  0.03  1.49     0.029 H 
ATOM     57  N   PHE A   6      -6.391  25.269  -2.659 -0.42  1.82    -0.416 N 
ATOM     58  CA  PHE A   6      -7.108  25.823  -1.551 -0.00  1.91    -0.002 C 
ATOM     59  C   PHE A   6      -8.432  25.149  -1.363  0.60  1.91     0.597 C 
ATOM     60  O   PHE A   6      -8.678  24.535  -0.324 -0.57  1.66    -0.568 OA
ATOM     61  CB  PHE A   6      -7.378  27.329  -1.694 -0.03  1.91    -0.034 C 
ATOM     62  CG  PHE A   6      -7.730  27.805  -0.329  0.01  1.91     0.012 A 
ATOM     63  CD1 PHE A   6      -9.029  27.782   0.121 -0.13  1.91    -0.126 A 
ATOM     64  CD2 PHE A   6      -6.741  28.263   0.511 -0.13  1.91    -0.126 A 
ATOM     65  CE1 PHE A   6      -9.334  28.221   1.388 -0.17  1.91    -0.170 A 
ATOM     66  CE2 PHE A   6      -7.042  28.703   1.779 -0.17  1.91    -0.170 A 
ATOM     67  CZ  PHE A   6      -8.342  28.684   2.219 -0.11  1.91    -0.107 A 
ATOM     68  HZ  PHE A   6      -8.571  29.005   3.141  0.13  1.46     0.130 H 
ATOM     69  HA  PHE A   6      -6.561  25.639  -0.718  0.10  1.39     0.098 H 
ATOM     70  HE1 PHE A   6     -10.297  28.200   1.703  0.14  1.46     0.143 H 
ATOM     71  HE2 PHE A   6      -6.298  29.043   2.384  0.14  1.46     0.143 H 
ATOM     72  H   PHE A   6      -6.190  25.721  -3.539  0.27  0.60     0.272 HD
ATOM     73  HD2 PHE A   6      -5.787  28.275   0.194  0.13  1.46     0.133 H 
ATOM     74  HD1 PHE A   6      -9.757  27.445  -0.471  0.13  1.46     0.133 H 
ATOM     75  HB3 PHE A   6      -8.137  27.436  -2.268  0.03  1.49     0.029 H 
ATOM     76  HB2 PHE A   6      -6.562  27.747  -1.970  0.03  1.49     0.029 H 
ATOM     77  N   LYS A   7      -9.305  25.202  -2.392 -0.35  1.82    -0.348 N 
ATOM     78  CA  LYS A   7     -10.621  24.643  -2.251 -0.24  1.91    -0.240 C 
ATOM     79  C   LYS A   7     -11.425  25.259  -3.352  0.73  1.91     0.734 C 
ATOM     80  O   LYS A   7     -12.643  25.093  -3.432 -0.59  1.66    -0.589 OA
ATOM     81  CB  LYS A   7     -11.291  25.084  -0.939 -0.01  1.91    -0.009 C 
ATOM     82  CG  LYS A   7     -12.340  24.109  -0.415  0.02  1.91     0.019 C 
ATOM     83  CD  LYS A   7     -11.704  22.846   0.164 -0.05  1.91    -0.048 C 
ATOM     84  CE  LYS A   7     -10.731  23.142   1.309 -0.01  1.91    -0.014 C 
ATOM     85  NZ  LYS A   7      -9.966  21.925   1.660 -0.39  1.82    -0.385 N 
ATOM     86  HA  LYS A   7     -10.580  23.662  -2.384  0.14  1.39     0.143 H 
ATOM     87  HE2 LYS A   7     -10.105  23.860   1.016  0.11  1.10     0.114 H 
ATOM     88  HE3 LYS A   7     -11.255  23.449   2.100  0.11  1.10     0.114 H 
ATOM     89  HG2 LYS A   7     -12.872  24.559   0.303  0.01  1.49     0.010 H 
ATOM     90  HG3 LYS A   7     -12.947  23.848  -1.165  0.01  1.49     0.010 H 
ATOM     91  HZ1 LYS A   7      -9.023  22.175   1.886  0.34  0.60     0.340 HD
ATOM     92  HZ3 LYS A   7     -10.389  21.479   2.450  0.34  0.60     0.340 HD
ATOM     93  HZ2 LYS A   7      -9.966  21.294   0.883  0.34  0.60     0.340 HD
ATOM     94  HD3 LYS A   7     -11.202  22.376  -0.560  0.06  1.49     0.062 H 
ATOM     95  HD2 LYS A   7     -12.428  22.252   0.512  0.06  1.49     0.062 H 
ATOM     96  H   LYS A   7      -8.942  25.662  -3.238  0.27  0.60     0.275 HD
ATOM     97  HB3 LYS A   7     -11.732  25.965  -1.098  0.04  1.49     0.036 H 
ATOM     98  HB2 LYS A   7     -10.580  25.182  -0.246  0.04  1.49     0.036 H 
ATOM     99  N   ASN A   8     -10.726  25.966  -4.258 -0.42  1.82    -0.416 N 
ATOM    100  CA  ASN A   8     -11.335  26.679  -5.340  0.01  1.91     0.014 C 
ATOM    101  C   ASN A   8     -12.135  27.825  -4.818  0.60  1.91     0.597 C 
ATOM    102  O   ASN A   8     -13.010  28.337  -5.515 -0.57  1.66    -0.568 OA
ATOM    103  CB  ASN A   8     -12.252  25.821  -6.230 -0.20  1.91    -0.204 C 
ATOM    104  CG  ASN A   8     -11.372  25.062  -7.209  0.71  1.91     0.713 C 
ATOM    105  HA  ASN A   8     -10.592  27.062  -5.906  0.10  1.39     0.105 H 
ATOM    106  H   ASN A   8      -9.687  25.939  -4.087  0.27  0.60     0.272 HD
ATOM    107  HB3 ASN A   8     -12.844  26.415  -6.728  0.08  1.49     0.080 H 
ATOM    108  HB2 ASN A   8     -12.723  25.182  -5.664  0.08  1.49     0.080 H 
ATOM    109  OD1 ASN A   8     -10.453  25.628  -7.800 -0.59  1.66    -0.593 OA
ATOM    110  ND2 ASN A   8     -11.659  23.747  -7.396 -0.92  1.82    -0.919 N 
ATOM    111 2HD2 ASN A   8     -11.114  23.212  -8.015  0.42  0.60     0.420 HD
ATOM    112 1HD2 ASN A   8     -12.424  23.346  -6.897  0.42  0.60     0.420 HD
ATOM    113  N   ILE A   9     -11.927  28.227  -3.552 -0.42  1.82    -0.416 N 
ATOM    114  CA  ILE A   9     -12.575  29.440  -3.151 -0.06  1.91    -0.060 C 
ATOM    115  C   ILE A   9     -11.806  30.611  -3.680  0.60  1.91     0.597 C 
ATOM    116  O   ILE A   9     -12.360  31.489  -4.338 -0.57  1.66    -0.568 OA
ATOM    117  CB  ILE A   9     -12.736  29.571  -1.659  0.13  1.91     0.130 C 
ATOM    118  CG1 ILE A   9     -11.383  29.584  -0.931 -0.04  1.91    -0.043 C 
ATOM    119  CG2 ILE A   9     -13.677  28.450  -1.191 -0.32  1.91    -0.320 C 
ATOM    120  CD1 ILE A   9     -11.498  30.027   0.527 -0.07  1.91    -0.066 C 
ATOM    121  HA  ILE A   9     -13.471  29.450  -3.603  0.09  1.39     0.087 H 
ATOM    122 2HG2 ILE A   9     -13.854  28.572  -0.219  0.09  1.49     0.088 H 
ATOM    123 1HG2 ILE A   9     -14.525  28.512  -1.709  0.09  1.49     0.088 H 
ATOM    124  HB  ILE A   9     -13.191  30.444  -1.458  0.02  1.49     0.019 H 
ATOM    125 2HG1 ILE A   9     -11.000  28.669  -0.958  0.02  1.49     0.024 H 
ATOM    126 3HG1 ILE A   9     -10.777  30.213  -1.405  0.02  1.49     0.024 H 
ATOM    127 3HD1 ILE A   9     -12.102  29.399   1.010  0.02  1.49     0.019 H 
ATOM    128  H   ILE A   9     -11.332  27.643  -2.990  0.27  0.60     0.272 HD
ATOM    129 2HD1 ILE A   9     -10.591  30.014   0.941  0.02  1.49     0.019 H 
ATOM    130 3HG2 ILE A   9     -13.232  27.574  -1.356  0.09  1.49     0.088 H 
ATOM    131 1HD1 ILE A   9     -11.873  30.951   0.556  0.02  1.49     0.019 H 
ATOM    132  N   VAL A  10     -10.490  30.646  -3.388 -0.42  1.82    -0.416 N 
ATOM    133  H   VAL A  10     -10.170  29.834  -2.812  0.27  0.60     0.272 HD
ENDROOT
BRANCH 132 134
ATOM    134  CA  VAL A  10      -9.634  31.706  -3.834 -0.09  1.91    -0.087 C 
ATOM    135  HA  VAL A  10     -10.197  32.389  -4.305  0.10  1.39     0.097 H 
BRANCH 134 136
ATOM    136  C   VAL A  10      -8.669  31.134  -4.802  0.60  1.91     0.597 C 
ATOM    137  N   THR A  11      -7.449  30.899  -4.309 -0.38  1.82    -0.382 N 
ATOM    138  H   THR A  11      -7.354  31.109  -3.295  0.27  0.60     0.268 HD
ATOM    139  O   VAL A  10      -8.987  30.858  -5.957 -0.57  1.66    -0.568 OA
BRANCH 137 140
ATOM    140  CA  THR A  11      -6.408  30.406  -5.138 -0.24  1.91    -0.242 C 
ATOM    141  HA  THR A  11      -6.810  29.937  -5.944  0.12  1.39     0.121 H 
BRANCH 140 142
ATOM    142  CB  THR A  11      -5.540  31.481  -5.714  0.30  1.91     0.302 C 
ATOM    143  HB  THR A  11      -5.866  31.715  -6.664  0.01  1.39     0.008 H 
BRANCH 142 144
ATOM    144  CG2 THR A  11      -5.638  32.705  -4.798 -0.19  1.91    -0.185 C 
ATOM    145 2HG2 THR A  11      -6.457  33.232  -5.030  0.06  1.49     0.059 H 
ATOM    146 3HG2 THR A  11      -4.827  33.280  -4.920  0.06  1.49     0.059 H 
ATOM    147 1HG2 THR A  11      -5.694  32.406  -3.844  0.06  1.49     0.059 H 
ENDBRANCH 142 144
BRANCH 142 148
ATOM    148  OG1 THR A  11      -4.196  31.040  -5.815 -0.65  1.72    -0.650 OA
ATOM    149  HG1 THR A  11      -4.038  30.240  -5.222  0.41  0.00     0.412 HD
ENDBRANCH 142 148
ENDBRANCH 140 142
BRANCH 140 150
ATOM    150  C   THR A  11      -5.529  29.393  -4.409  0.78  1.91     0.781 C 
ATOM    151  OXT THR A  11      -5.173  29.660  -3.231 -0.80  1.66    -0.804 OA
ATOM    152  O   THR A  11      -5.208  28.340  -5.022 -0.80  1.66    -0.804 OA
ENDBRANCH 140 150
ENDBRANCH 137 140
ENDBRANCH 134 136
BRANCH 134 153
ATOM    153  CB  VAL A  10      -8.883  32.367  -2.710  0.30  1.91     0.298 C 
ATOM    154  HB  VAL A  10      -8.015  32.690  -3.050 -0.03  1.49    -0.030 H 
BRANCH 153 155
ATOM    155  CG1 VAL A  10      -9.670  33.620  -2.286 -0.32  1.91    -0.319 C 
ATOM    156 3HG1 VAL A  10      -9.770  33.621  -1.293  0.08  1.49     0.079 H 
ATOM    157 2HG1 VAL A  10     -10.569  33.602  -2.718  0.08  1.49     0.079 H 
ATOM    158 1HG1 VAL A  10      -9.170  34.432  -2.577  0.08  1.49     0.079 H 
ENDBRANCH 153 155
BRANCH 153 159
ATOM    159  CG2 VAL A  10      -8.684  31.363  -1.560 -0.32  1.91    -0.319 C 
ATOM    160 3HG2 VAL A  10      -7.800  30.915  -1.673  0.08  1.49     0.079 H 
ATOM    161 1HG2 VAL A  10      -9.417  30.687  -1.592  0.08  1.49     0.079 H 
ATOM    162 2HG2 VAL A  10      -8.711  31.856  -0.694  0.08  1.49     0.079 H 
ENDBRANCH 153 159
ENDBRANCH 134 153
ENDBRANCH 132 134
BRANCH   1 163
ATOM    163  CA  VAL A   2       4.897  22.685  -3.420 -0.09  1.91    -0.087 C 
ATOM    164  HA  VAL A   2       5.081  22.647  -4.407  0.10  1.39     0.097 H 
BRANCH 163 165
ATOM    165  CB  VAL A   2       4.568  21.304  -2.930  0.30  1.91     0.298 C 
ATOM    166  HB  VAL A   2       3.601  21.132  -3.075 -0.03  1.49    -0.030 H 
BRANCH 165 167
ATOM    167  CG2 VAL A   2       4.946  21.228  -1.444 -0.32  1.91    -0.319 C 
ATOM    168 3HG2 VAL A   2       5.511  22.018  -1.214  0.08  1.49     0.079 H 
ATOM    169 1HG2 VAL A   2       5.455  20.386  -1.283  0.08  1.49     0.079 H 
ATOM    170 2HG2 VAL A   2       4.112  21.233  -0.898  0.08  1.49     0.079 H 
ENDBRANCH 165 167
BRANCH 165 171
ATOM    171  CG1 VAL A   2       5.317  20.273  -3.786 -0.32  1.91    -0.319 C 
ATOM    172 2HG1 VAL A   2       5.403  20.620  -4.717  0.08  1.49     0.079 H 
ATOM    173 1HG1 VAL A   2       4.805  19.417  -3.790  0.08  1.49     0.079 H 
ATOM    174 3HG1 VAL A   2       6.223  20.121  -3.397  0.08  1.49     0.079 H 
ENDBRANCH 165 171
ENDBRANCH 163 165
BRANCH 163 175
ATOM    175  N   VAL A   2       6.020  23.278  -2.770 -0.42  1.82    -0.416 N 
ATOM    176  H   VAL A   2       6.222  23.225  -1.760  0.27  0.60     0.272 HD
ATOM    177  C   PRO A   1       6.921  23.974  -3.482  0.53  1.91     0.526 C 
ATOM    178  O   PRO A   1       6.833  24.142  -4.697 -0.50  1.66    -0.500 OA
BRANCH 177 179
ATOM    179  CA  PRO A   1       8.071  24.578  -2.749  0.10  1.91     0.100 C 
ATOM    180  N   PRO A   1       8.929  23.434  -2.340 -0.20  1.82    -0.202 N 
ATOM    181  CD  PRO A   1      10.165  23.413  -3.195 -0.01  1.91    -0.012 C 
ATOM    182  H2  PRO A   1       9.030  23.417  -1.368  0.31  0.60     0.312 HD
ATOM    183  H   PRO A   1       8.549  22.593  -2.694  0.31  0.60     0.312 HD
ATOM    184  HD3 PRO A   1      10.969  23.646  -2.643  0.10  1.10     0.100 H 
ATOM    185  HD2 PRO A   1      10.292  22.503  -3.593  0.10  1.10     0.100 H 
ATOM    186  CG  PRO A   1       9.923  24.463  -4.288 -0.12  1.91    -0.121 C 
ATOM    187  HG2 PRO A   1       9.524  24.046  -5.095  0.10  1.49     0.100 H 
ATOM    188  HG3 PRO A   1      10.768  24.931  -4.519  0.10  1.49     0.100 H 
ATOM    189  CB  PRO A   1       8.931  25.449  -3.660 -0.12  1.91    -0.115 C 
ATOM    190  HB2 PRO A   1       8.385  25.881  -4.373  0.10  1.49     0.100 H 
ATOM    191  HB3 PRO A   1       9.424  26.143  -3.141  0.10  1.49     0.100 H 
ATOM    192  HA  PRO A   1       7.787  25.091  -1.958  0.10  1.10     0.100 H 
ENDBRANCH 177 179
ENDBRANCH 163 175
ENDBRANCH   1 163
TORSDOF 50
ENDMDL
