REMARK  21 active torsions:
REMARK  status: ('A' for Active; 'I' for Inactive)
REMARK    1  A    between atoms: N_1  and  CA_2 
REMARK    2  A    between atoms: CA_2  and  CB_5 
REMARK    3  A    between atoms: CA_2  and  C_3 
REMARK       I    between atoms: C_3  and  N_19 
REMARK    4  A    between atoms: CB_5  and  CG2_7 
REMARK    5  A    between atoms: CB_5  and  CG1_6 
REMARK    6  A    between atoms: N_19  and  CA_20 
REMARK    7  A    between atoms: CA_20  and  C_21 
REMARK    8  A    between atoms: CA_20  and  CB_23 
REMARK       I    between atoms: C_21  and  N_35 
REMARK    9  A    between atoms: CB_23  and  CG1_24 
REMARK   10  A    between atoms: CB_23  and  CG2_25 
REMARK       I    between atoms: N_35  and  CA_36 
REMARK       I    between atoms: CA_36  and  C_37 
REMARK       I    between atoms: CA_36  and  CB_40 
REMARK       I    between atoms: C_37  and  N_53 
REMARK       I    between atoms: CG_39  and  CB_40 
REMARK       I    between atoms: N_53  and  CA_54 
REMARK       I    between atoms: CA_54  and  CB_57 
REMARK       I    between atoms: CA_54  and  C_55 
REMARK       I    between atoms: C_55  and  N_73 
REMARK       I    between atoms: CB_57  and  CG_58 
REMARK       I    between atoms: N_73  and  CA_74 
REMARK       I    between atoms: CA_74  and  C_75 
REMARK       I    between atoms: CA_74  and  CB_77 
REMARK       I    between atoms: C_75  and  N_93 
REMARK       I    between atoms: CB_77  and  CG_78 
REMARK       I    between atoms: N_93  and  CA_94 
REMARK       I    between atoms: CA_94  and  C_95 
REMARK       I    between atoms: CA_94  and  CB_97 
REMARK       I    between atoms: C_95  and  N_115 
REMARK       I    between atoms: CB_97  and  CG_98 
REMARK       I    between atoms: CG_98  and  CD_99 
REMARK       I    between atoms: CD_99  and  CE_100 
REMARK       I    between atoms: CE_100  and  NZ_101 
REMARK       I    between atoms: N_115  and  CA_116 
REMARK       I    between atoms: CA_116  and  CB_119 
REMARK       I    between atoms: CA_116  and  C_117 
REMARK       I    between atoms: C_117  and  N_129 
REMARK       I    between atoms: CB_119  and  CG_120 
REMARK       I    between atoms: CG_120  and  ND2_126 
REMARK   11  A    between atoms: N_129  and  CA_130 
REMARK   12  A    between atoms: CA_130  and  C_131 
REMARK   13  A    between atoms: CA_130  and  CB_133 
REMARK       I    between atoms: C_131  and  N_148 
REMARK   14  A    between atoms: CB_133  and  CG1_134 
REMARK   15  A    between atoms: CB_133  and  CG2_135 
REMARK   16  A    between atoms: CG1_134  and  CD1_136 
REMARK   17  A    between atoms: N_148  and  CA_149 
REMARK   18  A    between atoms: CA_149  and  CB_152 
REMARK   19  A    between atoms: CA_149  and  C_150 
REMARK   20  A    between atoms: CB_152  and  CG1_153 
REMARK   21  A    between atoms: CB_152  and  CG2_154 
ROOT
ATOM      1  C   VAL A   2       0.482  24.126  -2.774  0.60  1.91     0.597 C 
ATOM      2  O   VAL A   2       0.608  22.914  -2.939 -0.57  1.66    -0.568 OA
ATOM      3  N   HIS A   3      -0.536  24.656  -2.065 -0.35  1.82    -0.348 N 
ATOM      4  CA  HIS A   3      -1.554  23.812  -1.509 -0.14  1.91    -0.135 C 
ATOM      5  C   HIS A   3      -2.871  24.325  -2.001  0.73  1.91     0.734 C 
ATOM      6  O   HIS A   3      -2.989  25.489  -2.378 -0.59  1.66    -0.589 OA
ATOM      7  CG  HIS A   3      -1.836  25.156   0.624 -0.00  1.91    -0.001 A 
ATOM      8  CB  HIS A   3      -1.582  23.805   0.029 -0.04  1.91    -0.041 C 
ATOM      9  HB2 HIS A   3      -2.305  23.181   0.337  0.08  1.49     0.081 H 
ATOM     10  HB3 HIS A   3      -0.698  23.470   0.366  0.08  1.49     0.081 H 
ATOM     11  H   HIS A   3      -0.501  25.684  -1.973  0.27  0.60     0.275 HD
ATOM     12  HA  HIS A   3      -1.425  22.882  -1.848  0.12  1.39     0.121 H 
ATOM     13  CD2 HIS A   3      -0.960  26.127   1.005 -0.11  1.91    -0.114 A 
ATOM     14  HE2 HIS A   3      -1.254  28.049   1.847  0.39  0.60     0.391 HD
ATOM     15  HD1 HIS A   3      -3.950  25.218   0.739  0.39  0.60     0.387 HD
ATOM     16  HD2 HIS A   3       0.050  26.058   0.931  0.23  1.41     0.232 H 
ATOM     17  CE1 HIS A   3      -2.914  26.894   1.417 -0.02  1.91    -0.017 A 
ATOM     18  ND1 HIS A   3      -3.090  25.655   0.891 -0.15  1.82    -0.151 N 
ATOM     19  NE2 HIS A   3      -1.638  27.223   1.506 -0.17  1.82    -0.172 N 
ATOM     20  HE1 HIS A   3      -3.686  27.486   1.702  0.27  1.36     0.268 H 
ATOM     21  N   PHE A   4      -3.906  23.458  -2.004 -0.42  1.82    -0.416 N 
ATOM     22  CA  PHE A   4      -5.180  23.832  -2.550 -0.00  1.91    -0.002 C 
ATOM     23  C   PHE A   4      -5.998  24.361  -1.410  0.60  1.91     0.597 C 
ATOM     24  O   PHE A   4      -6.036  23.769  -0.332 -0.57  1.66    -0.568 OA
ATOM     25  CB  PHE A   4      -5.905  22.616  -3.159 -0.03  1.91    -0.034 C 
ATOM     26  CG  PHE A   4      -6.850  23.086  -4.207  0.01  1.91     0.012 A 
ATOM     27  CD1 PHE A   4      -6.372  23.341  -5.473 -0.13  1.91    -0.126 A 
ATOM     28  CD2 PHE A   4      -8.190  23.260  -3.949 -0.13  1.91    -0.126 A 
ATOM     29  CE1 PHE A   4      -7.212  23.774  -6.469 -0.17  1.91    -0.170 A 
ATOM     30  CE2 PHE A   4      -9.035  23.693  -4.944 -0.17  1.91    -0.170 A 
ATOM     31  CZ  PHE A   4      -8.549  23.951  -6.204 -0.11  1.91    -0.107 A 
ATOM     32  HZ  PHE A   4      -9.165  24.267  -6.930  0.13  1.46     0.130 H 
ATOM     33  HA  PHE A   4      -5.024  24.590  -3.176  0.10  1.39     0.098 H 
ATOM     34  HE1 PHE A   4      -6.843  23.961  -7.390  0.14  1.46     0.143 H 
ATOM     35  HE2 PHE A   4     -10.026  23.823  -4.740  0.14  1.46     0.143 H 
ATOM     36  H   PHE A   4      -3.687  22.537  -1.588  0.27  0.60     0.272 HD
ATOM     37  HD2 PHE A   4      -8.551  23.070  -3.035  0.13  1.46     0.133 H 
ATOM     38  HD1 PHE A   4      -5.400  23.209  -5.673  0.13  1.46     0.133 H 
ATOM     39  HB3 PHE A   4      -6.409  22.190  -2.448  0.03  1.49     0.029 H 
ATOM     40  HB2 PHE A   4      -5.232  22.051  -3.571  0.03  1.49     0.029 H 
ATOM     41  N   PHE A   5      -6.611  25.551  -1.578 -0.42  1.82    -0.416 N 
ATOM     42  CA  PHE A   5      -7.351  26.064  -0.461 -0.00  1.91    -0.002 C 
ATOM     43  C   PHE A   5      -8.625  25.314  -0.212  0.60  1.91     0.597 C 
ATOM     44  O   PHE A   5      -8.791  24.679   0.829 -0.57  1.66    -0.568 OA
ATOM     45  CB  PHE A   5      -7.723  27.546  -0.608 -0.03  1.91    -0.034 C 
ATOM     46  CG  PHE A   5      -8.146  27.989   0.752  0.01  1.91     0.012 A 
ATOM     47  CD1 PHE A   5      -7.204  28.420   1.661 -0.13  1.91    -0.126 A 
ATOM     48  CD2 PHE A   5      -9.467  27.968   1.133 -0.13  1.91    -0.126 A 
ATOM     49  CE1 PHE A   5      -7.561  28.834   2.923 -0.17  1.91    -0.170 A 
ATOM     50  CE2 PHE A   5      -9.831  28.379   2.395 -0.17  1.91    -0.170 A 
ATOM     51  CZ  PHE A   5      -8.884  28.813   3.291 -0.11  1.91    -0.107 A 
ATOM     52  HZ  PHE A   5      -9.154  29.114   4.208  0.13  1.46     0.130 H 
ATOM     53  HA  PHE A   5      -6.769  25.941   0.365  0.10  1.39     0.098 H 
ATOM     54  HE1 PHE A   5      -6.852  29.147   3.567  0.14  1.46     0.143 H 
ATOM     55  HE2 PHE A   5     -10.817  28.357   2.663  0.14  1.46     0.143 H 
ATOM     56  H   PHE A   5      -6.498  25.985  -2.480  0.27  0.60     0.272 HD
ATOM     57  HD2 PHE A   5     -10.167  27.654   0.490  0.13  1.46     0.133 H 
ATOM     58  HD1 PHE A   5      -6.234  28.434   1.399  0.13  1.46     0.133 H 
ATOM     59  HB3 PHE A   5      -8.473  27.603  -1.200  0.03  1.49     0.029 H 
ATOM     60  HB2 PHE A   5      -6.933  28.024  -0.858  0.03  1.49     0.029 H 
ATOM     61  N   LYS A   6      -9.544  25.326  -1.201 -0.35  1.82    -0.348 N 
ATOM     62  CA  LYS A   6     -10.832  24.720  -1.006 -0.24  1.91    -0.240 C 
ATOM     63  C   LYS A   6     -11.688  25.281  -2.105  0.73  1.91     0.734 C 
ATOM     64  O   LYS A   6     -12.888  25.017  -2.189 -0.59  1.66    -0.589 OA
ATOM     65  CB  LYS A   6     -11.456  25.164   0.327 -0.01  1.91    -0.009 C 
ATOM     66  CG  LYS A   6     -12.383  24.131   0.962  0.02  1.91     0.019 C 
ATOM     67  CD  LYS A   6     -11.599  22.968   1.574 -0.05  1.91    -0.048 C 
ATOM     68  CE  LYS A   6     -10.773  23.380   2.796 -0.01  1.91    -0.014 C 
ATOM     69  NZ  LYS A   6      -9.709  22.387   3.063 -0.39  1.82    -0.385 N 
ATOM     70  HA  LYS A   6     -10.758  23.741  -1.119  0.14  1.39     0.143 H 
ATOM     71  HE2 LYS A   6     -10.363  24.272   2.617  0.11  1.10     0.114 H 
ATOM     72  HE3 LYS A   6     -11.381  23.441   3.585  0.11  1.10     0.114 H 
ATOM     73  HG2 LYS A   6     -12.917  24.572   1.683  0.01  1.49     0.010 H 
ATOM     74  HG3 LYS A   6     -12.998  23.770   0.263  0.01  1.49     0.010 H 
ATOM     75  HZ1 LYS A   6      -8.995  22.465   2.366  0.34  0.60     0.340 HD
ATOM     76  HZ3 LYS A   6      -9.311  22.556   3.966  0.34  0.60     0.340 HD
ATOM     77  HZ2 LYS A   6     -10.097  21.464   3.039  0.34  0.60     0.340 HD
ATOM     78  HD3 LYS A   6     -10.977  22.601   0.884  0.06  1.49     0.062 H 
ATOM     79  HD2 LYS A   6     -12.245  22.259   1.855  0.06  1.49     0.062 H 
ATOM     80  H   LYS A   6      -9.233  25.794  -2.065  0.27  0.60     0.275 HD
ATOM     81  HB3 LYS A   6     -11.981  25.997   0.161  0.04  1.49     0.036 H 
ATOM     82  HB2 LYS A   6     -10.715  25.355   0.967  0.04  1.49     0.036 H 
ATOM     83  N   ASN A   7     -11.044  26.028  -3.024 -0.42  1.82    -0.416 N 
ATOM     84  CA  ASN A   7     -11.712  26.712  -4.095  0.01  1.91     0.014 C 
ATOM     85  C   ASN A   7     -12.604  27.780  -3.561  0.60  1.91     0.597 C 
ATOM     86  O   ASN A   7     -13.714  27.982  -4.047 -0.57  1.66    -0.568 OA
ATOM     87  CB  ASN A   7     -12.551  25.798  -5.005 -0.20  1.91    -0.204 C 
ATOM     88  CG  ASN A   7     -11.611  25.139  -6.004  0.71  1.91     0.713 C 
ATOM     89  HA  ASN A   7     -11.000  27.162  -4.654  0.10  1.39     0.105 H 
ATOM     90  H   ASN A   7     -10.003  26.056  -2.873  0.27  0.60     0.272 HD
ATOM     91  HB3 ASN A   7     -13.194  26.349  -5.490  0.08  1.49     0.080 H 
ATOM     92  HB2 ASN A   7     -12.964  25.106  -4.455  0.08  1.49     0.080 H 
ATOM     93  OD1 ASN A   7     -10.749  25.797  -6.585 -0.59  1.66    -0.593 OA
ATOM     94  ND2 ASN A   7     -11.780  23.807  -6.219 -0.92  1.82    -0.919 N 
ATOM     95 2HD2 ASN A   7     -11.194  23.336  -6.850  0.42  0.60     0.420 HD
ATOM     96 1HD2 ASN A   7     -12.504  23.330  -5.726  0.42  0.60     0.420 HD
ATOM     97  N   ILE A   8     -12.188  28.420  -2.460 -0.42  1.82    -0.416 N 
ATOM     98  H   ILE A   8     -11.361  27.990  -2.004  0.27  0.60     0.272 HD
ENDROOT
BRANCH   1  99
ATOM     99  CA  VAL A   2       1.488  25.085  -3.325 -0.09  1.91    -0.087 C 
ATOM    100  HA  VAL A   2       1.632  25.813  -2.652  0.10  1.39     0.097 H 
BRANCH  99 101
ATOM    101  N   VAL A   2       2.722  24.383  -3.509 -0.42  1.82    -0.416 N 
ATOM    102  H   VAL A   2       2.965  23.811  -4.331  0.27  0.60     0.272 HD
ATOM    103  C   VAL A   1       3.678  24.439  -2.564  0.62  1.91     0.616 C 
ATOM    104  O   VAL A   1       3.556  25.105  -1.537 -0.57  1.66    -0.572 OA
BRANCH 103 105
ATOM    105  CA  VAL A   1       4.925  23.670  -2.838 -0.01  1.91    -0.005 C 
ATOM    106  HA  VAL A   1       4.914  23.352  -3.794  0.11  1.10     0.109 H 
BRANCH 105 107
ATOM    107  CB  VAL A   1       4.993  22.516  -1.883  0.32  1.91     0.320 C 
ATOM    108  HB  VAL A   1       5.842  22.027  -2.026 -0.02  1.49    -0.022 H 
BRANCH 107 109
ATOM    109  CG2 VAL A   1       3.784  21.601  -2.136 -0.31  1.91    -0.313 C 
ATOM    110 3HG2 VAL A   1       4.106  20.732  -2.503  0.07  1.49     0.073 H 
ATOM    111 1HG2 VAL A   1       3.175  22.042  -2.791  0.07  1.49     0.073 H 
ATOM    112 2HG2 VAL A   1       3.306  21.450  -1.275  0.07  1.49     0.073 H 
ENDBRANCH 107 109
BRANCH 107 113
ATOM    113  CG1 VAL A   1       5.058  23.072  -0.451 -0.31  1.91    -0.313 C 
ATOM    114 1HG1 VAL A   1       5.779  22.600   0.050  0.07  1.49     0.073 H 
ATOM    115 2HG1 VAL A   1       5.256  24.049  -0.489  0.07  1.49     0.073 H 
ATOM    116 3HG1 VAL A   1       4.180  22.922  -0.002  0.07  1.49     0.073 H 
ENDBRANCH 107 113
ENDBRANCH 105 107
BRANCH 105 117
ATOM    117  N   VAL A   1       6.118  24.531  -2.680  0.06  1.82     0.058 N 
ATOM    118  H3  VAL A   1       6.941  23.973  -2.781  0.23  0.60     0.227 HD
ATOM    119  H2  VAL A   1       6.103  24.950  -1.773  0.23  0.60     0.227 HD
ATOM    120  H   VAL A   1       6.104  25.243  -3.381  0.23  0.60     0.227 HD
ENDBRANCH 105 117
ENDBRANCH 103 105
ENDBRANCH  99 101
BRANCH  99 121
ATOM    121  CB  VAL A   2       0.943  25.668  -4.596  0.30  1.91     0.298 C 
ATOM    122  HB  VAL A   2       0.094  26.136  -4.399 -0.03  1.49    -0.030 H 
BRANCH 121 123
ATOM    123  CG1 VAL A   2       1.921  26.749  -5.089 -0.32  1.91    -0.319 C 
ATOM    124 3HG1 VAL A   2       2.332  27.200  -4.300  0.08  1.49     0.079 H 
ATOM    125 2HG1 VAL A   2       1.421  27.415  -5.638  0.08  1.49     0.079 H 
ATOM    126 1HG1 VAL A   2       2.631  26.318  -5.642  0.08  1.49     0.079 H 
ENDBRANCH 121 123
BRANCH 121 127
ATOM    127  CG2 VAL A   2       0.726  24.532  -5.608 -0.32  1.91    -0.319 C 
ATOM    128 2HG2 VAL A   2       1.612  24.242  -5.963  0.08  1.49     0.079 H 
ATOM    129 1HG2 VAL A   2       0.276  23.771  -5.147  0.08  1.49     0.079 H 
ATOM    130 3HG2 VAL A   2       0.153  24.868  -6.352  0.08  1.49     0.079 H 
ENDBRANCH 121 127
ENDBRANCH  99 121
ENDBRANCH   1  99
BRANCH  97 131
ATOM    131  CA  ILE A   8     -12.859  29.596  -1.989 -0.06  1.91    -0.060 C 
ATOM    132  HA  ILE A   8     -13.832  29.463  -2.174  0.09  1.39     0.087 H 
BRANCH 131 133
ATOM    133  C   ILE A   8     -12.407  30.744  -2.826  0.60  1.91     0.597 C 
ATOM    134  O   ILE A   8     -13.189  31.612  -3.206 -0.57  1.66    -0.568 OA
ATOM    135  N   VAL A   9     -11.091  30.770  -3.113 -0.38  1.82    -0.382 N 
ATOM    136  H   VAL A   9     -10.567  29.946  -2.749  0.27  0.60     0.268 HD
BRANCH 135 137
ATOM    137  CA  VAL A   9     -10.505  31.845  -3.850 -0.34  1.91    -0.344 C 
ATOM    138  HA  VAL A   9     -10.943  32.702  -3.582  0.14  1.39     0.144 H 
BRANCH 137 139
ATOM    139  CB  VAL A   9      -9.015  31.909  -3.690  0.19  1.91     0.194 C 
ATOM    140  HB  VAL A   9      -8.672  32.705  -4.166  0.03  1.49     0.031 H 
BRANCH 139 141
ATOM    141  CG1 VAL A   9      -8.699  32.136  -2.201 -0.31  1.91    -0.306 C 
ATOM    142 3HG1 VAL A   9      -9.211  31.477  -1.655  0.08  1.49     0.084 H 
ATOM    143 2HG1 VAL A   9      -8.965  33.064  -1.950  0.08  1.49     0.084 H 
ATOM    144 1HG1 VAL A   9      -7.721  32.011  -2.053  0.08  1.49     0.084 H 
ENDBRANCH 139 141
BRANCH 139 145
ATOM    145  CG2 VAL A   9      -8.401  30.626  -4.273 -0.31  1.91    -0.306 C 
ATOM    146 1HG2 VAL A   9      -8.668  29.852  -3.705  0.08  1.49     0.084 H 
ATOM    147 3HG2 VAL A   9      -8.738  30.498  -5.202  0.08  1.49     0.084 H 
ATOM    148 2HG2 VAL A   9      -7.409  30.716  -4.281  0.08  1.49     0.084 H 
ENDBRANCH 139 145
ENDBRANCH 137 139
BRANCH 137 149
ATOM    149  C   VAL A   9     -10.798  31.617  -5.324  0.83  1.91     0.835 C 
ATOM    150  OXT VAL A   9     -11.266  30.499  -5.668 -0.82  1.66    -0.817 OA
ATOM    151  O   VAL A   9     -10.555  32.558  -6.125 -0.82  1.66    -0.817 OA
ENDBRANCH 137 149
ENDBRANCH 135 137
ENDBRANCH 131 133
BRANCH 131 152
ATOM    152  CB  ILE A   8     -12.563  29.912  -0.550  0.13  1.91     0.130 C 
ATOM    153  HB  ILE A   8     -11.576  29.950  -0.421  0.02  1.49     0.019 H 
BRANCH 152 154
ATOM    154  CG1 ILE A   8     -13.099  28.794   0.362 -0.04  1.91    -0.043 C 
ATOM    155 3HG1 ILE A   8     -12.765  27.922   0.015  0.02  1.49     0.024 H 
ATOM    156 2HG1 ILE A   8     -14.094  28.802   0.320  0.02  1.49     0.024 H 
BRANCH 154 157
ATOM    157  CD1 ILE A   8     -12.667  28.933   1.821 -0.07  1.91    -0.066 C 
ATOM    158 3HD1 ILE A   8     -13.004  29.800   2.177  0.02  1.49     0.019 H 
ATOM    159 2HD1 ILE A   8     -13.050  28.178   2.346  0.02  1.49     0.019 H 
ATOM    160 1HD1 ILE A   8     -11.672  28.909   1.868  0.02  1.49     0.019 H 
ENDBRANCH 154 157
ENDBRANCH 152 154
BRANCH 152 161
ATOM    161  CG2 ILE A   8     -13.158  31.294  -0.238 -0.32  1.91    -0.320 C 
ATOM    162 3HG2 ILE A   8     -14.146  31.247  -0.357  0.09  1.49     0.088 H 
ATOM    163 1HG2 ILE A   8     -12.763  31.958  -0.867  0.09  1.49     0.088 H 
ATOM    164 2HG2 ILE A   8     -12.933  31.530   0.703  0.09  1.49     0.088 H 
ENDBRANCH 152 161
ENDBRANCH 131 152
ENDBRANCH  97 131
TORSDOF 44
