MODEL 1
REMARK VINA RESULT:      -8.3      0.000      0.000
REMARK  19 active torsions:
REMARK  status: ('A' for Active; 'I' for Inactive)
REMARK    1  A    between atoms: N_1  and  CA_2 
REMARK    2  A    between atoms: CA_2  and  C_3 
REMARK    3  A    between atoms: CA_2  and  CB_5 
REMARK       I    between atoms: C_3  and  N_19 
REMARK    4  A    between atoms: CB_5  and  CG2_7 
REMARK    5  A    between atoms: CB_5  and  CG1_6 
REMARK    6  A    between atoms: N_19  and  CA_20 
REMARK    7  A    between atoms: CA_20  and  CB_24 
REMARK    8  A    between atoms: CA_20  and  C_21 
REMARK       I    between atoms: C_21  and  N_37 
REMARK    9  A    between atoms: CG_23  and  CB_24 
REMARK       I    between atoms: N_37  and  CA_38 
REMARK       I    between atoms: CA_38  and  CB_41 
REMARK       I    between atoms: CA_38  and  C_39 
REMARK       I    between atoms: C_39  and  N_57 
REMARK       I    between atoms: CB_41  and  CG_42 
REMARK       I    between atoms: N_57  and  CA_58 
REMARK       I    between atoms: CA_58  and  CB_61 
REMARK       I    between atoms: CA_58  and  C_59 
REMARK       I    between atoms: C_59  and  N_77 
REMARK       I    between atoms: CB_61  and  CG_62 
REMARK       I    between atoms: N_77  and  CA_78 
REMARK       I    between atoms: CA_78  and  C_79 
REMARK       I    between atoms: CA_78  and  CB_81 
REMARK       I    between atoms: C_79  and  N_99 
REMARK       I    between atoms: CB_81  and  CG_82 
REMARK       I    between atoms: CG_82  and  CD_83 
REMARK       I    between atoms: CD_83  and  CE_84 
REMARK       I    between atoms: CE_84  and  NZ_85 
REMARK   10  A    between atoms: N_99  and  CA_100 
REMARK   11  A    between atoms: CA_100  and  C_101 
REMARK   12  A    between atoms: CA_100  and  CB_103 
REMARK       I    between atoms: C_101  and  N_113 
REMARK   13  A    between atoms: CB_103  and  CG_104 
REMARK       I    between atoms: CG_104  and  ND2_110 
REMARK   14  A    between atoms: N_113  and  CA_114 
REMARK   15  A    between atoms: CA_114  and  C_115 
REMARK   16  A    between atoms: CA_114  and  CB_117 
REMARK   17  A    between atoms: CB_117  and  CG2_119 
REMARK   18  A    between atoms: CB_117  and  CG1_118 
REMARK   19  A    between atoms: CG1_118  and  CD1_120 
ROOT
ATOM      1  C   HIS A   2      -3.511  27.025  -0.764  0.73  1.91     0.734 C 
ATOM      2  O   HIS A   2      -3.392  28.167  -1.204 -0.59  1.66    -0.589 OA
ATOM      3  N   PHE A   3      -3.645  25.950  -1.572 -0.42  1.82    -0.416 N 
ATOM      4  CA  PHE A   3      -3.845  26.022  -2.988 -0.00  1.91    -0.002 C 
ATOM      5  C   PHE A   3      -5.297  26.157  -3.390  0.60  1.91     0.597 C 
ATOM      6  O   PHE A   3      -5.648  27.030  -4.184 -0.57  1.66    -0.568 OA
ATOM      7  CB  PHE A   3      -3.267  24.768  -3.665 -0.03  1.91    -0.034 C 
ATOM      8  CG  PHE A   3      -2.881  25.119  -5.058  0.01  1.91     0.012 A 
ATOM      9  CD1 PHE A   3      -3.782  25.067  -6.094 -0.13  1.91    -0.126 A 
ATOM     10  CD2 PHE A   3      -1.590  25.516  -5.319 -0.13  1.91    -0.126 A 
ATOM     11  CE1 PHE A   3      -3.396  25.392  -7.372 -0.17  1.91    -0.170 A 
ATOM     12  CE2 PHE A   3      -1.199  25.843  -6.595 -0.17  1.91    -0.170 A 
ATOM     13  CZ  PHE A   3      -2.106  25.789  -7.626 -0.11  1.91    -0.107 A 
ATOM     14  HZ  PHE A   3      -1.831  26.037  -8.557  0.13  1.46     0.130 H 
ATOM     15  HA  PHE A   3      -3.373  26.865  -3.318  0.10  1.39     0.098 H 
ATOM     16  HE1 PHE A   3      -4.072  25.336  -8.126  0.14  1.46     0.143 H 
ATOM     17  HE2 PHE A   3      -0.237  26.123  -6.771  0.14  1.46     0.143 H 
ATOM     18  H   PHE A   3      -3.587  25.036  -1.038  0.27  0.60     0.272 HD
ATOM     19  HD2 PHE A   3      -0.926  25.569  -4.567  0.13  1.46     0.133 H 
ATOM     20  HD1 PHE A   3      -4.727  24.792  -5.921  0.13  1.46     0.133 H 
ATOM     21  HB3 PHE A   3      -3.968  24.100  -3.692  0.03  1.49     0.029 H 
ATOM     22  HB2 PHE A   3      -2.474  24.509  -3.175  0.03  1.49     0.029 H 
ATOM     23  N   PHE A   4      -6.186  25.294  -2.838 -0.42  1.82    -0.416 N 
ATOM     24  CA  PHE A   4      -7.567  25.260  -3.274 -0.00  1.91    -0.002 C 
ATOM     25  C   PHE A   4      -8.506  25.418  -2.120  0.60  1.91     0.597 C 
ATOM     26  O   PHE A   4      -8.356  24.770  -1.085 -0.57  1.66    -0.568 OA
ATOM     27  CB  PHE A   4      -8.017  23.912  -3.869 -0.03  1.91    -0.034 C 
ATOM     28  CG  PHE A   4      -7.500  23.698  -5.246  0.01  1.91     0.012 A 
ATOM     29  CD1 PHE A   4      -6.235  23.210  -5.469 -0.13  1.91    -0.126 A 
ATOM     30  CD2 PHE A   4      -8.315  23.956  -6.323 -0.13  1.91    -0.126 A 
ATOM     31  CE1 PHE A   4      -5.786  23.016  -6.753 -0.17  1.91    -0.170 A 
ATOM     32  CE2 PHE A   4      -7.869  23.764  -7.608 -0.17  1.91    -0.170 A 
ATOM     33  CZ  PHE A   4      -6.601  23.284  -7.827 -0.11  1.91    -0.107 A 
ATOM     34  HZ  PHE A   4      -6.270  23.129  -8.758  0.13  1.46     0.130 H 
ATOM     35  HA  PHE A   4      -7.701  26.057  -3.882  0.10  1.39     0.098 H 
ATOM     36  HE1 PHE A   4      -4.843  22.673  -6.903  0.14  1.46     0.143 H 
ATOM     37  HE2 PHE A   4      -8.480  23.979  -8.391  0.14  1.46     0.143 H 
ATOM     38  H   PHE A   4      -5.786  24.689  -2.102  0.27  0.60     0.272 HD
ATOM     39  HD2 PHE A   4      -9.251  24.289  -6.167  0.13  1.46     0.133 H 
ATOM     40  HD1 PHE A   4      -5.639  22.993  -4.700  0.13  1.46     0.133 H 
ATOM     41  HB3 PHE A   4      -9.001  23.918  -3.898  0.03  1.49     0.029 H 
ATOM     42  HB2 PHE A   4      -7.666  23.202  -3.286  0.03  1.49     0.029 H 
ATOM     43  N   LYS A   5      -9.383  26.433  -2.180 -0.35  1.82    -0.348 N 
ATOM     44  CA  LYS A   5     -10.507  26.512  -1.289 -0.24  1.91    -0.240 C 
ATOM     45  C   LYS A   5     -11.808  26.114  -1.929  0.73  1.91     0.734 C 
ATOM     46  O   LYS A   5     -12.608  25.364  -1.370 -0.59  1.66    -0.589 OA
ATOM     47  CB  LYS A   5     -10.626  27.919  -0.686 -0.01  1.91    -0.009 C 
ATOM     48  CG  LYS A   5      -9.542  28.137   0.372  0.02  1.91     0.019 C 
ATOM     49  CD  LYS A   5      -9.142  29.594   0.592 -0.05  1.91    -0.048 C 
ATOM     50  CE  LYS A   5      -8.071  30.040  -0.403 -0.01  1.91    -0.014 C 
ATOM     51  NZ  LYS A   5      -7.020  29.000  -0.487 -0.39  1.82    -0.385 N 
ATOM     52  HA  LYS A   5     -10.337  25.901  -0.488  0.14  1.39     0.143 H 
ATOM     53  HE2 LYS A   5      -8.493  30.162  -1.293  0.11  1.10     0.114 H 
ATOM     54  HE3 LYS A   5      -7.674  30.893  -0.085  0.11  1.10     0.114 H 
ATOM     55  HG2 LYS A   5      -9.870  27.756   1.252  0.01  1.49     0.010 H 
ATOM     56  HG3 LYS A   5      -8.718  27.613   0.103  0.01  1.49     0.010 H 
ATOM     57  HZ1 LYS A   5      -6.524  29.094  -1.351  0.34  0.60     0.340 HD
ATOM     58  HZ3 LYS A   5      -6.381  29.107   0.275  0.34  0.60     0.340 HD
ATOM     59  HZ2 LYS A   5      -7.441  28.093  -0.443  0.34  0.60     0.340 HD
ATOM     60  HD3 LYS A   5      -8.779  29.693   1.511  0.06  1.49     0.062 H 
ATOM     61  HD2 LYS A   5      -9.944  30.168   0.470  0.06  1.49     0.062 H 
ATOM     62  H   LYS A   5      -9.167  27.135  -2.918  0.27  0.60     0.275 HD
ATOM     63  HB3 LYS A   5     -11.504  27.998  -0.254  0.04  1.49     0.036 H 
ATOM     64  HB2 LYS A   5     -10.497  28.576  -1.403  0.04  1.49     0.036 H 
ATOM     65  N   ASN A   6     -12.027  26.592  -3.171 -0.42  1.82    -0.416 N 
ATOM     66  H   ASN A   6     -11.189  27.000  -3.621  0.27  0.60     0.272 HD
ENDROOT
BRANCH  65  67
ATOM     67  CA  ASN A   6     -13.329  26.519  -3.776  0.01  1.91     0.014 C 
ATOM     68  HA  ASN A   6     -13.278  27.017  -4.651  0.10  1.39     0.105 H 
BRANCH  67  69
ATOM     69  C   ASN A   6     -14.316  27.211  -2.917  0.60  1.91     0.597 C 
ATOM     70  O   ASN A   6     -15.214  26.575  -2.375 -0.57  1.66    -0.568 OA
ATOM     71  N   ILE A   7     -14.115  28.530  -2.725 -0.38  1.82    -0.382 N 
ATOM     72  H   ILE A   7     -13.261  28.895  -3.203  0.27  0.60     0.268 HD
BRANCH  71  73
ATOM     73  CA  ILE A   7     -15.005  29.329  -1.938 -0.31  1.91    -0.310 C 
ATOM     74  HA  ILE A   7     -15.483  28.708  -1.313  0.14  1.39     0.138 H 
BRANCH  73  75
ATOM     75  C   ILE A   7     -16.076  29.935  -2.837  0.83  1.91     0.834 C 
ATOM     76  O   ILE A   7     -15.805  31.032  -3.392 -0.82  1.66    -0.819 OA
ATOM     77  OXT ILE A   7     -17.160  29.312  -2.992 -0.82  1.66    -0.819 OA
ENDBRANCH  73  75
BRANCH  73  78
ATOM     78  CB  ILE A   7     -14.291  30.425  -1.196  0.04  1.91     0.036 C 
ATOM     79  HB  ILE A   7     -14.778  31.282  -1.337  0.08  1.49     0.077 H 
BRANCH  78  80
ATOM     80  CG2 ILE A   7     -14.316  30.100   0.305 -0.35  1.91    -0.350 C 
ATOM     81 3HG2 ILE A   7     -14.455  30.947   0.810  0.10  1.49     0.102 H 
ATOM     82 1HG2 ILE A   7     -13.445  29.686   0.554  0.10  1.49     0.102 H 
ATOM     83 2HG2 ILE A   7     -15.064  29.466   0.479  0.10  1.49     0.102 H 
ENDBRANCH  78  80
BRANCH  78  84
ATOM     84  CG1 ILE A   7     -12.872  30.607  -1.761 -0.03  1.91    -0.032 C 
ATOM     85 3HG1 ILE A   7     -12.949  30.985  -2.682  0.03  1.49     0.032 H 
ATOM     86 2HG1 ILE A   7     -12.437  29.711  -1.816  0.03  1.49     0.032 H 
BRANCH  84  87
ATOM     87  CD1 ILE A   7     -11.986  31.533  -0.929 -0.07  1.91    -0.070 C 
ATOM     88 3HD1 ILE A   7     -11.031  31.311  -1.107  0.02  1.49     0.020 H 
ATOM     89 2HD1 ILE A   7     -12.170  32.477  -1.189  0.02  1.49     0.020 H 
ATOM     90 1HD1 ILE A   7     -12.194  31.399   0.036  0.02  1.49     0.020 H 
ENDBRANCH  84  87
ENDBRANCH  78  84
ENDBRANCH  73  78
ENDBRANCH  71  73
ENDBRANCH  67  69
BRANCH  67  91
ATOM     91  CB  ASN A   6     -13.829  25.074  -3.937 -0.20  1.91    -0.204 C 
ATOM     92  HB3 ASN A   6     -14.800  25.088  -4.017  0.08  1.49     0.080 H 
ATOM     93  HB2 ASN A   6     -13.505  24.547  -3.183  0.08  1.49     0.080 H 
BRANCH  91  94
ATOM     94  CG  ASN A   6     -13.234  24.520  -5.220  0.71  1.91     0.713 C 
ATOM     95  ND2 ASN A   6     -13.789  23.376  -5.701 -0.92  1.82    -0.919 N 
ATOM     96 1HD2 ASN A   6     -14.549  22.964  -5.204  0.42  0.60     0.420 HD
ATOM     97 2HD2 ASN A   6     -13.437  22.973  -6.527  0.42  0.60     0.420 HD
ATOM     98  OD1 ASN A   6     -12.302  25.093  -5.782 -0.59  1.66    -0.593 OA
ENDBRANCH  91  94
ENDBRANCH  67  91
ENDBRANCH  65  67
BRANCH   1  99
ATOM     99  CA  HIS A   2      -3.329  26.748   0.702 -0.14  1.91    -0.135 C 
ATOM    100  HA  HIS A   2      -3.402  25.772   0.851  0.12  1.39     0.121 H 
BRANCH  99 101
ATOM    101  N   HIS A   2      -1.994  27.173   1.003 -0.35  1.82    -0.348 N 
ATOM    102  H   HIS A   2      -1.750  28.078   1.454  0.27  0.60     0.275 HD
ATOM    103  C   VAL A   1      -0.927  26.404   0.712  0.62  1.91     0.616 C 
ATOM    104  O   VAL A   1      -1.053  25.244   0.318 -0.57  1.66    -0.572 OA
BRANCH 103 105
ATOM    105  CA  VAL A   1       0.437  26.992   0.889 -0.01  1.91    -0.005 C 
ATOM    106  HA  VAL A   1       0.357  27.963   1.015  0.11  1.10     0.109 H 
BRANCH 105 107
ATOM    107  N   VAL A   1       0.924  26.416   2.162  0.06  1.82     0.058 N 
ATOM    108  H2  VAL A   1       1.849  26.062   2.030  0.23  0.60     0.227 HD
ATOM    109  H   VAL A   1       0.316  25.673   2.440  0.23  0.60     0.227 HD
ATOM    110  H3  VAL A   1       0.932  27.128   2.863  0.23  0.60     0.227 HD
ENDBRANCH 105 107
BRANCH 105 111
ATOM    111  CB  VAL A   1       1.318  26.489  -0.230  0.32  1.91     0.320 C 
ATOM    112  HB  VAL A   1       1.003  25.584  -0.504 -0.02  1.49    -0.022 H 
BRANCH 111 113
ATOM    113  CG2 VAL A   1       2.750  26.317   0.303 -0.31  1.91    -0.313 C 
ATOM    114 1HG2 VAL A   1       3.142  25.486  -0.085  0.07  1.49     0.073 H 
ATOM    115 2HG2 VAL A   1       2.720  26.246   1.297  0.07  1.49     0.073 H 
ATOM    116 3HG2 VAL A   1       3.293  27.108   0.034  0.07  1.49     0.073 H 
ENDBRANCH 111 113
BRANCH 111 117
ATOM    117  CG1 VAL A   1       1.179  27.385  -1.474 -0.31  1.91    -0.313 C 
ATOM    118 1HG1 VAL A   1       0.220  27.632  -1.591  0.07  1.49     0.073 H 
ATOM    119 2HG1 VAL A   1       1.727  28.207  -1.346  0.07  1.49     0.073 H 
ATOM    120 3HG1 VAL A   1       1.500  26.884  -2.273  0.07  1.49     0.073 H 
ENDBRANCH 111 117
ENDBRANCH 105 111
ENDBRANCH 103 105
ENDBRANCH  99 101
BRANCH  99 121
ATOM    121  CB  HIS A   2      -4.366  27.600   1.468 -0.04  1.91    -0.041 C 
ATOM    122  HB2 HIS A   2      -5.193  27.698   0.887  0.08  1.49     0.081 H 
ATOM    123  HB3 HIS A   2      -4.646  27.091   2.301  0.08  1.49     0.081 H 
BRANCH 121 124
ATOM    124  CG  HIS A   2      -3.921  28.972   1.885 -0.00  1.91    -0.001 A 
ATOM    125  ND1 HIS A   2      -3.867  30.055   1.037 -0.15  1.82    -0.151 N 
ATOM    126  CE1 HIS A   2      -3.458  31.115   1.779 -0.02  1.91    -0.017 A 
ATOM    127  HD1 HIS A   2      -4.079  30.075   0.083  0.39  0.60     0.387 HD
ATOM    128  NE2 HIS A   2      -3.250  30.790   3.042 -0.17  1.82    -0.172 N 
ATOM    129  HE1 HIS A   2      -3.330  32.042   1.392  0.27  1.36     0.268 H 
ATOM    130  HE2 HIS A   2      -2.959  31.365   3.770  0.39  0.60     0.391 HD
ATOM    131  CD2 HIS A   2      -3.542  29.438   3.106 -0.11  1.91    -0.114 A 
ATOM    132  HD2 HIS A   2      -3.481  28.876   3.949  0.23  1.41     0.232 H 
ENDBRANCH 121 124
ENDBRANCH  99 121
ENDBRANCH   1  99
TORSDOF 34
ENDMDL
