MODEL 1
REMARK VINA RESULT:      -7.8      0.000      0.000
REMARK  19 active torsions:
REMARK  status: ('A' for Active; 'I' for Inactive)
REMARK    1  A    between atoms: N_1  and  CA_2 
REMARK    2  A    between atoms: CA_2  and  CB_5 
REMARK    3  A    between atoms: CA_2  and  C_3 
REMARK       I    between atoms: C_3  and  N_19 
REMARK    4  A    between atoms: CB_5  and  CG2_7 
REMARK    5  A    between atoms: CB_5  and  CG1_6 
REMARK    6  A    between atoms: N_19  and  CA_20 
REMARK    7  A    between atoms: CA_20  and  CB_24 
REMARK    8  A    between atoms: CA_20  and  C_21 
REMARK       I    between atoms: C_21  and  N_37 
REMARK    9  A    between atoms: CG_23  and  CB_24 
REMARK       I    between atoms: N_37  and  CA_38 
REMARK       I    between atoms: CA_38  and  CB_41 
REMARK       I    between atoms: CA_38  and  C_39 
REMARK       I    between atoms: C_39  and  N_57 
REMARK       I    between atoms: CB_41  and  CG_42 
REMARK       I    between atoms: N_57  and  CA_58 
REMARK       I    between atoms: CA_58  and  C_59 
REMARK       I    between atoms: CA_58  and  CB_61 
REMARK       I    between atoms: C_59  and  N_77 
REMARK       I    between atoms: CB_61  and  CG_62 
REMARK       I    between atoms: N_77  and  CA_78 
REMARK       I    between atoms: CA_78  and  C_79 
REMARK       I    between atoms: CA_78  and  CB_81 
REMARK       I    between atoms: C_79  and  N_99 
REMARK       I    between atoms: CB_81  and  CG_82 
REMARK       I    between atoms: CG_82  and  CD_83 
REMARK       I    between atoms: CD_83  and  CE_84 
REMARK       I    between atoms: CE_84  and  NZ_85 
REMARK   10  A    between atoms: N_99  and  CA_100 
REMARK   11  A    between atoms: CA_100  and  C_101 
REMARK   12  A    between atoms: CA_100  and  CB_103 
REMARK       I    between atoms: C_101  and  N_113 
REMARK   13  A    between atoms: CB_103  and  CG_104 
REMARK       I    between atoms: CG_104  and  ND2_110 
REMARK   14  A    between atoms: N_113  and  CA_114 
REMARK   15  A    between atoms: CA_114  and  CB_117 
REMARK   16  A    between atoms: CA_114  and  C_115 
REMARK   17  A    between atoms: CB_117  and  CG1_118 
REMARK   18  A    between atoms: CB_117  and  CG2_119 
REMARK   19  A    between atoms: CG1_118  and  CD1_120 
ROOT
ATOM      1  C   HIS A   2     -12.671  28.448  -1.563  0.73  1.91     0.734 C 
ATOM      2  O   HIS A   2     -13.297  27.931  -0.640 -0.59  1.66    -0.589 OA
ATOM      3  N   PHE A   3     -11.323  28.390  -1.651 -0.42  1.82    -0.416 N 
ATOM      4  CA  PHE A   3     -10.513  27.779  -0.629 -0.00  1.91    -0.002 C 
ATOM      5  C   PHE A   3      -9.361  28.677  -0.295  0.60  1.91     0.597 C 
ATOM      6  O   PHE A   3      -9.293  29.820  -0.741 -0.57  1.66    -0.568 OA
ATOM      7  CB  PHE A   3      -9.929  26.400  -0.996 -0.03  1.91    -0.034 C 
ATOM      8  CG  PHE A   3     -10.975  25.353  -0.803  0.01  1.91     0.012 A 
ATOM      9  CD1 PHE A   3     -11.182  24.819   0.448 -0.13  1.91    -0.126 A 
ATOM     10  CD2 PHE A   3     -11.736  24.891  -1.852 -0.13  1.91    -0.126 A 
ATOM     11  CE1 PHE A   3     -12.133  23.850   0.656 -0.17  1.91    -0.170 A 
ATOM     12  CE2 PHE A   3     -12.689  23.920  -1.648 -0.17  1.91    -0.170 A 
ATOM     13  CZ  PHE A   3     -12.893  23.397  -0.394 -0.11  1.91    -0.107 A 
ATOM     14  HZ  PHE A   3     -13.587  22.693  -0.244  0.13  1.46     0.130 H 
ATOM     15  HA  PHE A   3     -11.083  27.707   0.197  0.10  1.39     0.098 H 
ATOM     16  HE1 PHE A   3     -12.268  23.474   1.586  0.14  1.46     0.143 H 
ATOM     17  HE2 PHE A   3     -13.245  23.590  -2.438  0.14  1.46     0.143 H 
ATOM     18  H   PHE A   3     -10.943  28.825  -2.519  0.27  0.60     0.272 HD
ATOM     19  HD2 PHE A   3     -11.595  25.265  -2.772  0.13  1.46     0.133 H 
ATOM     20  HD1 PHE A   3     -10.633  25.142   1.222  0.13  1.46     0.133 H 
ATOM     21  HB3 PHE A   3      -9.193  26.223  -0.390  0.03  1.49     0.029 H 
ATOM     22  HB2 PHE A   3      -9.682  26.427  -1.933  0.03  1.49     0.029 H 
ATOM     23  N   PHE A   4      -8.508  28.267   0.665 -0.42  1.82    -0.416 N 
ATOM     24  CA  PHE A   4      -7.428  29.165   0.941 -0.00  1.91    -0.002 C 
ATOM     25  C   PHE A   4      -6.294  29.151  -0.062  0.60  1.91     0.597 C 
ATOM     26  O   PHE A   4      -6.214  30.002  -0.948 -0.57  1.66    -0.568 OA
ATOM     27  CB  PHE A   4      -6.846  28.902   2.341 -0.03  1.91    -0.034 C 
ATOM     28  CG  PHE A   4      -5.960  30.034   2.716  0.01  1.91     0.012 A 
ATOM     29  CD1 PHE A   4      -6.500  31.262   3.027 -0.13  1.91    -0.126 A 
ATOM     30  CD2 PHE A   4      -4.597  29.871   2.789 -0.13  1.91    -0.126 A 
ATOM     31  CE1 PHE A   4      -5.692  32.312   3.387 -0.17  1.91    -0.170 A 
ATOM     32  CE2 PHE A   4      -3.783  30.918   3.149 -0.17  1.91    -0.170 A 
ATOM     33  CZ  PHE A   4      -4.332  32.142   3.447 -0.11  1.91    -0.107 A 
ATOM     34  HZ  PHE A   4      -3.742  32.911   3.707  0.13  1.46     0.130 H 
ATOM     35  HA  PHE A   4      -7.814  30.116   0.927  0.10  1.39     0.098 H 
ATOM     36  HE1 PHE A   4      -6.107  33.209   3.604  0.14  1.46     0.143 H 
ATOM     37  HE2 PHE A   4      -2.777  30.781   3.193  0.14  1.46     0.143 H 
ATOM     38  H   PHE A   4      -8.698  27.389   1.094  0.27  0.60     0.272 HD
ATOM     39  HD2 PHE A   4      -4.192  28.977   2.577  0.13  1.46     0.133 H 
ATOM     40  HD1 PHE A   4      -7.491  31.392   2.994  0.13  1.46     0.133 H 
ATOM     41  HB3 PHE A   4      -6.317  28.091   2.291  0.03  1.49     0.029 H 
ATOM     42  HB2 PHE A   4      -7.589  28.863   2.964  0.03  1.49     0.029 H 
ATOM     43  N   LYS A   5      -5.381  28.157   0.090 -0.35  1.82    -0.348 N 
ATOM     44  CA  LYS A   5      -4.164  28.024  -0.673 -0.24  1.91    -0.240 C 
ATOM     45  C   LYS A   5      -4.272  27.148  -1.881  0.73  1.91     0.734 C 
ATOM     46  O   LYS A   5      -3.752  27.459  -2.952 -0.59  1.66    -0.589 OA
ATOM     47  CB  LYS A   5      -3.032  27.474   0.217 -0.01  1.91    -0.009 C 
ATOM     48  CG  LYS A   5      -1.621  27.894  -0.197  0.02  1.91     0.019 C 
ATOM     49  CD  LYS A   5      -1.271  27.548  -1.638 -0.05  1.91    -0.048 C 
ATOM     50  CE  LYS A   5      -1.235  26.053  -1.937 -0.01  1.91    -0.014 C 
ATOM     51  NZ  LYS A   5       0.116  25.528  -1.671 -0.39  1.82    -0.385 N 
ATOM     52  HA  LYS A   5      -3.863  28.961  -0.970  0.14  1.39     0.143 H 
ATOM     53  HE2 LYS A   5      -1.897  25.594  -1.352  0.11  1.10     0.114 H 
ATOM     54  HE3 LYS A   5      -1.469  25.913  -2.895  0.11  1.10     0.114 H 
ATOM     55  HG2 LYS A   5      -1.531  28.892  -0.073  0.01  1.49     0.010 H 
ATOM     56  HG3 LYS A   5      -0.957  27.444   0.415  0.01  1.49     0.010 H 
ATOM     57  HZ1 LYS A   5       0.786  26.271  -1.721  0.34  0.60     0.340 HD
ATOM     58  HZ3 LYS A   5       0.147  25.119  -0.756  0.34  0.60     0.340 HD
ATOM     59  HZ2 LYS A   5       0.348  24.829  -2.351  0.34  0.60     0.340 HD
ATOM     60  HD3 LYS A   5      -0.367  27.934  -1.852  0.06  1.49     0.062 H 
ATOM     61  HD2 LYS A   5      -1.952  27.974  -2.245  0.06  1.49     0.062 H 
ATOM     62  H   LYS A   5      -5.665  27.470   0.849  0.27  0.60     0.275 HD
ATOM     63  HB3 LYS A   5      -3.081  26.475   0.196  0.04  1.49     0.036 H 
ATOM     64  HB2 LYS A   5      -3.192  27.794   1.152  0.04  1.49     0.036 H 
ATOM     65  N   ASN A   6      -4.928  25.983  -1.725 -0.42  1.82    -0.416 N 
ATOM     66  H   ASN A   6      -5.375  25.849  -0.822  0.27  0.60     0.272 HD
ENDROOT
BRANCH  65  67
ATOM     67  CA  ASN A   6      -4.936  25.062  -2.820  0.01  1.91     0.014 C 
ATOM     68  HA  ASN A   6      -4.220  25.345  -3.454  0.10  1.39     0.105 H 
BRANCH  67  69
ATOM     69  C   ASN A   6      -6.238  25.227  -3.503  0.60  1.91     0.597 C 
ATOM     70  N   ILE A   7      -6.679  24.119  -4.135 -0.38  1.82    -0.382 N 
ATOM     71  H   ILE A   7      -6.006  23.285  -3.956  0.27  0.60     0.268 HD
ATOM     72  O   ASN A   6      -6.847  26.294  -3.415 -0.57  1.66    -0.568 OA
BRANCH  70  73
ATOM     73  CA  ILE A   7      -7.852  23.971  -4.945 -0.31  1.91    -0.310 C 
ATOM     74  HA  ILE A   7      -8.052  24.875  -5.337  0.14  1.39     0.138 H 
BRANCH  73  75
ATOM     75  CB  ILE A   7      -7.691  23.028  -6.108  0.04  1.91     0.036 C 
ATOM     76  HB  ILE A   7      -8.260  22.221  -5.951  0.08  1.49     0.077 H 
BRANCH  75  77
ATOM     77  CG1 ILE A   7      -6.240  22.548  -6.237 -0.03  1.91    -0.032 C 
ATOM     78 3HG1 ILE A   7      -6.233  21.562  -6.224  0.03  1.49     0.032 H 
ATOM     79 2HG1 ILE A   7      -5.716  22.913  -5.488  0.03  1.49     0.032 H 
BRANCH  77  80
ATOM     80  CD1 ILE A   7      -5.619  23.021  -7.553 -0.07  1.91    -0.070 C 
ATOM     81 1HD1 ILE A   7      -4.699  22.646  -7.628  0.02  1.49     0.020 H 
ATOM     82 3HD1 ILE A   7      -6.181  22.700  -8.310  0.02  1.49     0.020 H 
ATOM     83 2HD1 ILE A   7      -5.584  24.016  -7.554  0.02  1.49     0.020 H 
ENDBRANCH  77  80
ENDBRANCH  75  77
BRANCH  75  84
ATOM     84  CG2 ILE A   7      -8.230  23.664  -7.400 -0.35  1.91    -0.350 C 
ATOM     85 1HG2 ILE A   7      -7.606  23.445  -8.145  0.10  1.49     0.102 H 
ATOM     86 2HG2 ILE A   7      -8.281  24.650  -7.270  0.10  1.49     0.102 H 
ATOM     87 3HG2 ILE A   7      -9.135  23.290  -7.583  0.10  1.49     0.102 H 
ENDBRANCH  75  84
ENDBRANCH  73  75
BRANCH  73  88
ATOM     88  C   ILE A   7      -9.042  23.605  -4.081  0.83  1.91     0.834 C 
ATOM     89  O   ILE A   7      -8.879  23.663  -2.832 -0.82  1.66    -0.819 OA
ATOM     90  OXT ILE A   7     -10.126  23.293  -4.630 -0.82  1.66    -0.819 OA
ENDBRANCH  73  88
ENDBRANCH  70  73
ENDBRANCH  67  69
BRANCH  67  91
ATOM     91  CB  ASN A   6      -4.823  23.593  -2.379 -0.20  1.91    -0.204 C 
ATOM     92  HB3 ASN A   6      -4.638  23.046  -3.165  0.08  1.49     0.080 H 
ATOM     93  HB2 ASN A   6      -5.641  23.345  -1.911  0.08  1.49     0.080 H 
BRANCH  91  94
ATOM     94  CG  ASN A   6      -3.650  23.488  -1.415  0.71  1.91     0.713 C 
ATOM     95  OD1 ASN A   6      -3.740  23.901  -0.260 -0.59  1.66    -0.593 OA
ATOM     96  ND2 ASN A   6      -2.519  22.906  -1.896 -0.92  1.82    -0.919 N 
ATOM     97 2HD2 ASN A   6      -1.735  22.810  -1.311  0.42  0.60     0.420 HD
ATOM     98 1HD2 ASN A   6      -2.507  22.587  -2.840  0.42  0.60     0.420 HD
ENDBRANCH  91  94
ENDBRANCH  67  91
ENDBRANCH  65  67
BRANCH   1  99
ATOM     99  CA  HIS A   2     -13.385  29.153  -2.679 -0.14  1.91    -0.135 C 
ATOM    100  HA  HIS A   2     -13.940  29.875  -2.291  0.12  1.39     0.121 H 
BRANCH  99 101
ATOM    101  N   HIS A   2     -12.348  29.719  -3.463 -0.35  1.82    -0.348 N 
ATOM    102  H   HIS A   2     -11.499  29.245  -3.778  0.27  0.60     0.275 HD
ATOM    103  C   VAL A   1     -12.461  31.000  -3.845  0.62  1.91     0.616 C 
ATOM    104  O   VAL A   1     -13.445  31.678  -3.557 -0.57  1.66    -0.572 OA
BRANCH 103 105
ATOM    105  CA  VAL A   1     -11.347  31.580  -4.646 -0.01  1.91    -0.005 C 
ATOM    106  HA  VAL A   1     -11.724  32.075  -5.427  0.11  1.10     0.109 H 
BRANCH 105 107
ATOM    107  CB  VAL A   1     -10.374  30.511  -5.090  0.32  1.91     0.320 C 
ATOM    108  HB  VAL A   1     -10.650  29.650  -4.694 -0.02  1.49    -0.022 H 
BRANCH 107 109
ATOM    109  CG2 VAL A   1      -8.936  30.822  -4.635 -0.31  1.91    -0.313 C 
ATOM    110 1HG2 VAL A   1      -8.637  30.112  -4.005  0.07  1.49     0.073 H 
ATOM    111 3HG2 VAL A   1      -8.342  30.843  -5.434  0.07  1.49     0.073 H 
ATOM    112 2HG2 VAL A   1      -8.927  31.709  -4.180  0.07  1.49     0.073 H 
ENDBRANCH 107 109
BRANCH 107 113
ATOM    113  CG1 VAL A   1     -10.515  30.359  -6.604 -0.31  1.91    -0.313 C 
ATOM    114 1HG1 VAL A   1     -11.126  31.069  -6.953  0.07  1.49     0.073 H 
ATOM    115 3HG1 VAL A   1     -10.894  29.459  -6.813  0.07  1.49     0.073 H 
ATOM    116 2HG1 VAL A   1      -9.616  30.452  -7.030  0.07  1.49     0.073 H 
ENDBRANCH 107 113
ENDBRANCH 105 107
BRANCH 105 117
ATOM    117  N   VAL A   1     -10.631  32.567  -3.805  0.06  1.82     0.058 N 
ATOM    118  H2  VAL A   1      -9.910  32.101  -3.294  0.23  0.60     0.227 HD
ATOM    119  H3  VAL A   1     -10.231  33.268  -4.393  0.23  0.60     0.227 HD
ATOM    120  H   VAL A   1     -11.278  32.986  -3.170  0.23  0.60     0.227 HD
ENDBRANCH 105 117
ENDBRANCH 103 105
ENDBRANCH  99 101
BRANCH  99 121
ATOM    121  CB  HIS A   2     -14.256  28.160  -3.456 -0.04  1.91    -0.041 C 
ATOM    122  HB3 HIS A   2     -14.831  28.660  -4.092  0.08  1.49     0.081 H 
ATOM    123  HB2 HIS A   2     -14.812  27.643  -2.815  0.08  1.49     0.081 H 
BRANCH 121 124
ATOM    124  CG  HIS A   2     -13.406  27.202  -4.232 -0.00  1.91    -0.001 A 
ATOM    125  ND1 HIS A   2     -12.142  27.478  -4.703 -0.15  1.82    -0.151 N 
ATOM    126  CE1 HIS A   2     -11.704  26.351  -5.318 -0.02  1.91    -0.017 A 
ATOM    127  HD1 HIS A   2     -11.644  28.313  -4.620  0.39  0.60     0.387 HD
ATOM    128  NE2 HIS A   2     -12.592  25.375  -5.274 -0.17  1.82    -0.172 N 
ATOM    129  HE1 HIS A   2     -10.792  26.282  -5.758  0.27  1.36     0.268 H 
ATOM    130  HE2 HIS A   2     -12.517  24.477  -5.637  0.39  0.60     0.391 HD
ATOM    131  CD2 HIS A   2     -13.666  25.917  -4.589 -0.11  1.91    -0.114 A 
ATOM    132  HD2 HIS A   2     -14.527  25.419  -4.383  0.23  1.41     0.232 H 
ENDBRANCH 121 124
ENDBRANCH  99 121
ENDBRANCH   1  99
TORSDOF 34
ENDMDL
