REMARK  19 active torsions:
REMARK  status: ('A' for Active; 'I' for Inactive)
REMARK    1  A    between atoms: N_1  and  CA_2 
REMARK    2  A    between atoms: CA_2  and  CB_5 
REMARK    3  A    between atoms: CA_2  and  C_3 
REMARK       I    between atoms: C_3  and  N_19 
REMARK    4  A    between atoms: CB_5  and  CG2_7 
REMARK    5  A    between atoms: CB_5  and  CG1_6 
REMARK    6  A    between atoms: N_19  and  CA_20 
REMARK    7  A    between atoms: CA_20  and  CB_24 
REMARK    8  A    between atoms: CA_20  and  C_21 
REMARK       I    between atoms: C_21  and  N_37 
REMARK    9  A    between atoms: CG_23  and  CB_24 
REMARK       I    between atoms: N_37  and  CA_38 
REMARK       I    between atoms: CA_38  and  CB_41 
REMARK       I    between atoms: CA_38  and  C_39 
REMARK       I    between atoms: C_39  and  N_57 
REMARK       I    between atoms: CB_41  and  CG_42 
REMARK       I    between atoms: N_57  and  CA_58 
REMARK       I    between atoms: CA_58  and  C_59 
REMARK       I    between atoms: CA_58  and  CB_61 
REMARK       I    between atoms: C_59  and  N_77 
REMARK       I    between atoms: CB_61  and  CG_62 
REMARK       I    between atoms: N_77  and  CA_78 
REMARK       I    between atoms: CA_78  and  C_79 
REMARK       I    between atoms: CA_78  and  CB_81 
REMARK       I    between atoms: C_79  and  N_99 
REMARK       I    between atoms: CB_81  and  CG_82 
REMARK       I    between atoms: CG_82  and  CD_83 
REMARK       I    between atoms: CD_83  and  CE_84 
REMARK       I    between atoms: CE_84  and  NZ_85 
REMARK   10  A    between atoms: N_99  and  CA_100 
REMARK   11  A    between atoms: CA_100  and  C_101 
REMARK   12  A    between atoms: CA_100  and  CB_103 
REMARK       I    between atoms: C_101  and  N_113 
REMARK   13  A    between atoms: CB_103  and  CG_104 
REMARK       I    between atoms: CG_104  and  ND2_110 
REMARK   14  A    between atoms: N_113  and  CA_114 
REMARK   15  A    between atoms: CA_114  and  CB_117 
REMARK   16  A    between atoms: CA_114  and  C_115 
REMARK   17  A    between atoms: CB_117  and  CG1_118 
REMARK   18  A    between atoms: CB_117  and  CG2_119 
REMARK   19  A    between atoms: CG1_118  and  CD1_120 
ROOT
ATOM      1  C   HIS A   2       1.033  24.501  -2.243  0.73  1.91     0.734 C 
ATOM      2  O   HIS A   2       1.725  25.491  -2.475 -0.59  1.66    -0.589 OA
ATOM      3  N   PHE A   3      -0.306  24.489  -2.431 -0.42  1.82    -0.416 N 
ATOM      4  CA  PHE A   3      -1.033  25.660  -2.847 -0.00  1.91    -0.002 C 
ATOM      5  C   PHE A   3      -2.253  25.826  -1.993  0.60  1.91     0.597 C 
ATOM      6  O   PHE A   3      -2.435  25.129  -0.998 -0.57  1.66    -0.568 OA
ATOM      7  CB  PHE A   3      -1.499  25.651  -4.317 -0.03  1.91    -0.034 C 
ATOM      8  CG  PHE A   3      -0.359  26.036  -5.200  0.01  1.91     0.012 A 
ATOM      9  CD1 PHE A   3      -0.075  27.367  -5.404 -0.13  1.91    -0.126 A 
ATOM     10  CD2 PHE A   3       0.415  25.091  -5.832 -0.13  1.91    -0.126 A 
ATOM     11  CE1 PHE A   3       0.964  27.753  -6.215 -0.17  1.91    -0.170 A 
ATOM     12  CE2 PHE A   3       1.457  25.474  -6.646 -0.17  1.91    -0.170 A 
ATOM     13  CZ  PHE A   3       1.737  26.805  -6.840 -0.11  1.91    -0.107 A 
ATOM     14  HZ  PHE A   3       2.495  27.084  -7.429  0.13  1.46     0.130 H 
ATOM     15  HA  PHE A   3      -0.440  26.454  -2.675  0.10  1.39     0.098 H 
ATOM     16  HE1 PHE A   3       1.154  28.738  -6.349  0.14  1.46     0.143 H 
ATOM     17  HE2 PHE A   3       2.021  24.759  -7.107  0.14  1.46     0.143 H 
ATOM     18  H   PHE A   3      -0.744  23.561  -2.246  0.27  0.60     0.272 HD
ATOM     19  HD2 PHE A   3       0.220  24.117  -5.699  0.13  1.46     0.133 H 
ATOM     20  HD1 PHE A   3      -0.632  28.068  -4.954  0.13  1.46     0.133 H 
ATOM     21  HB3 PHE A   3      -2.202  26.314  -4.406  0.03  1.49     0.029 H 
ATOM     22  HB2 PHE A   3      -1.770  24.745  -4.533  0.03  1.49     0.029 H 
ATOM     23  N   PHE A   4      -3.043  26.892  -2.234 -0.42  1.82    -0.416 N 
ATOM     24  CA  PHE A   4      -4.193  26.998  -1.388 -0.00  1.91    -0.002 C 
ATOM     25  C   PHE A   4      -5.344  26.077  -1.731  0.60  1.91     0.597 C 
ATOM     26  O   PHE A   4      -5.522  25.022  -1.123 -0.57  1.66    -0.568 OA
ATOM     27  CB  PHE A   4      -4.715  28.445  -1.359 -0.03  1.91    -0.034 C 
ATOM     28  CG  PHE A   4      -5.691  28.585  -0.247  0.01  1.91     0.012 A 
ATOM     29  CD1 PHE A   4      -5.256  28.577   1.059 -0.13  1.91    -0.126 A 
ATOM     30  CD2 PHE A   4      -7.031  28.754  -0.500 -0.13  1.91    -0.126 A 
ATOM     31  CE1 PHE A   4      -6.147  28.717   2.095 -0.17  1.91    -0.170 A 
ATOM     32  CE2 PHE A   4      -7.927  28.896   0.532 -0.17  1.91    -0.170 A 
ATOM     33  CZ  PHE A   4      -7.484  28.875   1.833 -0.11  1.91    -0.107 A 
ATOM     34  HZ  PHE A   4      -8.135  28.975   2.590  0.13  1.46     0.130 H 
ATOM     35  HA  PHE A   4      -3.894  26.746  -0.438  0.10  1.39     0.098 H 
ATOM     36  HE1 PHE A   4      -5.809  28.701   3.049  0.14  1.46     0.143 H 
ATOM     37  HE2 PHE A   4      -8.916  29.015   0.328  0.14  1.46     0.143 H 
ATOM     38  H   PHE A   4      -2.765  27.505  -2.967  0.27  0.60     0.272 HD
ATOM     39  HD2 PHE A   4      -7.359  28.775  -1.449  0.13  1.46     0.133 H 
ATOM     40  HD1 PHE A   4      -4.282  28.470   1.259  0.13  1.46     0.133 H 
ATOM     41  HB3 PHE A   4      -5.170  28.609  -2.200  0.03  1.49     0.029 H 
ATOM     42  HB2 PHE A   4      -3.957  29.027  -1.189  0.03  1.49     0.029 H 
ATOM     43  N   LYS A   5      -6.160  26.497  -2.732 -0.35  1.82    -0.348 N 
ATOM     44  CA  LYS A   5      -7.378  25.841  -3.141 -0.24  1.91    -0.240 C 
ATOM     45  C   LYS A   5      -7.220  24.867  -4.266  0.73  1.91     0.734 C 
ATOM     46  O   LYS A   5      -7.791  23.777  -4.260 -0.59  1.66    -0.589 OA
ATOM     47  CB  LYS A   5      -8.434  26.884  -3.556 -0.01  1.91    -0.009 C 
ATOM     48  CG  LYS A   5      -9.887  26.446  -3.363  0.02  1.91     0.019 C 
ATOM     49  CD  LYS A   5     -10.238  25.142  -4.067 -0.05  1.91    -0.048 C 
ATOM     50  CE  LYS A   5     -10.147  25.202  -5.588 -0.01  1.91    -0.014 C 
ATOM     51  NZ  LYS A   5     -11.438  25.643  -6.145 -0.39  1.82    -0.385 N 
ATOM     52  HA  LYS A   5      -7.769  25.347  -2.329  0.14  1.39     0.143 H 
ATOM     53  HE2 LYS A   5      -9.432  25.848  -5.840  0.11  1.10     0.114 H 
ATOM     54  HE3 LYS A   5      -9.924  24.294  -5.931  0.11  1.10     0.114 H 
ATOM     55  HG2 LYS A   5     -10.063  26.338  -2.375  0.01  1.49     0.010 H 
ATOM     56  HG3 LYS A   5     -10.493  27.175  -3.709  0.01  1.49     0.010 H 
ATOM     57  HZ1 LYS A   5     -12.173  25.450  -5.492  0.34  0.60     0.340 HD
ATOM     58  HZ3 LYS A   5     -11.410  26.628  -6.327  0.34  0.60     0.340 HD
ATOM     59  HZ2 LYS A   5     -11.622  25.155  -7.001  0.34  0.60     0.340 HD
ATOM     60  HD3 LYS A   5     -11.178  24.884  -3.818  0.06  1.49     0.062 H 
ATOM     61  HD2 LYS A   5      -9.613  24.423  -3.742  0.06  1.49     0.062 H 
ATOM     62  H   LYS A   5      -5.798  27.382  -3.195  0.27  0.60     0.275 HD
ATOM     63  HB3 LYS A   5      -8.296  27.094  -4.525  0.04  1.49     0.036 H 
ATOM     64  HB2 LYS A   5      -8.282  27.710  -3.013  0.04  1.49     0.036 H 
ATOM     65  N   ASN A   6      -6.458  25.261  -5.303 -0.42  1.82    -0.416 N 
ATOM     66  H   ASN A   6      -5.980  26.150  -5.183  0.27  0.60     0.272 HD
ENDROOT
BRANCH  65  67
ATOM     67  CA  ASN A   6      -6.393  24.412  -6.453  0.01  1.91     0.014 C 
ATOM     68  HA  ASN A   6      -7.092  23.708  -6.345  0.10  1.39     0.105 H 
BRANCH  67  69
ATOM     69  C   ASN A   6      -5.072  23.748  -6.415  0.60  1.91     0.597 C 
ATOM     70  N   ILE A   7      -5.023  22.651  -5.629 -0.38  1.82    -0.382 N 
ATOM     71  H   ILE A   7      -6.006  22.430  -5.223  0.27  0.60     0.268 HD
ATOM     72  O   ASN A   6      -4.150  24.173  -7.112 -0.57  1.66    -0.568 OA
BRANCH  70  73
ATOM     73  CA  ILE A   7      -3.886  21.836  -5.319 -0.31  1.91    -0.310 C 
ATOM     74  HA  ILE A   7      -4.176  21.189  -4.607  0.14  1.39     0.138 H 
BRANCH  73  75
ATOM     75  CB  ILE A   7      -3.382  21.006  -6.470  0.04  1.91     0.036 C 
ATOM     76  HB  ILE A   7      -4.164  20.591  -6.936  0.08  1.49     0.077 H 
BRANCH  75  77
ATOM     77  CG1 ILE A   7      -2.483  19.865  -5.980 -0.03  1.91    -0.032 C 
ATOM     78 3HG1 ILE A   7      -2.780  19.594  -5.080  0.03  1.49     0.032 H 
ATOM     79 2HG1 ILE A   7      -1.550  20.179  -5.962  0.03  1.49     0.032 H 
BRANCH  77  80
ATOM     80  CD1 ILE A   7      -2.578  18.652  -6.909 -0.07  1.91    -0.070 C 
ATOM     81 1HD1 ILE A   7      -3.522  18.335  -6.929  0.02  1.49     0.020 H 
ATOM     82 3HD1 ILE A   7      -2.289  18.922  -7.823  0.02  1.49     0.020 H 
ATOM     83 2HD1 ILE A   7      -1.983  17.933  -6.562  0.02  1.49     0.020 H 
ENDBRANCH  77  80
ENDBRANCH  75  77
BRANCH  75  84
ATOM     84  CG2 ILE A   7      -2.703  21.896  -7.524 -0.35  1.91    -0.350 C 
ATOM     85 1HG2 ILE A   7      -3.342  22.610  -7.794  0.10  1.49     0.102 H 
ATOM     86 2HG2 ILE A   7      -2.463  21.331  -8.308  0.10  1.49     0.102 H 
ATOM     87 3HG2 ILE A   7      -1.885  22.296  -7.121  0.10  1.49     0.102 H 
ENDBRANCH  75  84
ENDBRANCH  73  75
BRANCH  73  88
ATOM     88  C   ILE A   7      -2.787  22.682  -4.708  0.83  1.91     0.834 C 
ATOM     89  O   ILE A   7      -3.128  23.497  -3.808 -0.82  1.66    -0.819 OA
ATOM     90  OXT ILE A   7      -1.603  22.522  -5.092 -0.82  1.66    -0.819 OA
ENDBRANCH  73  88
ENDBRANCH  70  73
ENDBRANCH  67  69
BRANCH  67  91
ATOM     91  CB  ASN A   6      -6.492  25.180  -7.782 -0.20  1.91    -0.204 C 
ATOM     92  HB3 ASN A   6      -6.300  24.563  -8.512  0.08  1.49     0.080 H 
ATOM     93  HB2 ASN A   6      -5.890  25.945  -7.744  0.08  1.49     0.080 H 
BRANCH  91  94
ATOM     94  CG  ASN A   6      -7.922  25.682  -7.921  0.71  1.91     0.713 C 
ATOM     95  OD1 ASN A   6      -8.862  24.896  -8.027 -0.59  1.66    -0.593 OA
ATOM     96  ND2 ASN A   6      -8.096  27.031  -7.907 -0.92  1.82    -0.919 N 
ATOM     97 2HD2 ASN A   6      -9.002  27.405  -7.988  0.42  0.60     0.420 HD
ATOM     98 1HD2 ASN A   6      -7.296  27.618  -7.815  0.42  0.60     0.420 HD
ENDBRANCH  91  94
ENDBRANCH  67  91
ENDBRANCH  65  67
BRANCH   1  99
ATOM     99  CA  HIS A   2       1.654  23.221  -1.766 -0.14  1.91    -0.135 C 
ATOM    100  HA  HIS A   2       2.401  23.443  -1.156  0.12  1.39     0.121 H 
BRANCH  99 101
ATOM    101  N   HIS A   2       0.622  22.575  -1.039 -0.35  1.82    -0.348 N 
ATOM    102  H   HIS A   2       0.165  21.695  -1.287  0.27  0.60     0.275 HD
ATOM    103  C   VAL A   1       0.179  23.149   0.090  0.62  1.91     0.616 C 
ATOM    104  O   VAL A   1       0.661  24.196   0.518 -0.57  1.66    -0.572 OA
BRANCH 103 105
ATOM    105  CA  VAL A   1      -0.923  22.465   0.822 -0.01  1.91    -0.005 C 
ATOM    106  HA  VAL A   1      -0.540  21.938   1.579  0.11  1.10     0.109 H 
BRANCH 105 107
ATOM    107  CB  VAL A   1      -1.736  21.587  -0.102  0.32  1.91     0.320 C 
ATOM    108  HB  VAL A   1      -2.559  21.312   0.368 -0.02  1.49    -0.022 H 
BRANCH 107 109
ATOM    109  CG2 VAL A   1      -0.961  20.322  -0.516 -0.31  1.91    -0.313 C 
ATOM    110 1HG2 VAL A   1      -1.198  19.581   0.105  0.07  1.49     0.073 H 
ATOM    111 3HG2 VAL A   1      -1.213  20.080  -1.449  0.07  1.49     0.073 H 
ATOM    112 2HG2 VAL A   1       0.016  20.511  -0.465  0.07  1.49     0.073 H 
ENDBRANCH 107 109
BRANCH 107 113
ATOM    113  CG1 VAL A   1      -2.177  22.446  -1.286 -0.31  1.91    -0.313 C 
ATOM    114 1HG1 VAL A   1      -3.173  22.527  -1.284  0.07  1.49     0.073 H 
ATOM    115 3HG1 VAL A   1      -1.878  22.016  -2.137  0.07  1.49     0.073 H 
ATOM    116 2HG1 VAL A   1      -1.767  23.354  -1.207  0.07  1.49     0.073 H 
ENDBRANCH 107 113
ENDBRANCH 105 107
BRANCH 105 117
ATOM    117  N   VAL A   1      -1.806  23.498   1.410  0.06  1.82     0.058 N 
ATOM    118  H2  VAL A   1      -1.683  23.509   2.402  0.23  0.60     0.227 HD
ATOM    119  H3  VAL A   1      -1.566  24.390   1.029  0.23  0.60     0.227 HD
ATOM    120  H   VAL A   1      -2.756  23.281   1.190  0.23  0.60     0.227 HD
ENDBRANCH 105 117
ENDBRANCH 103 105
ENDBRANCH  99 101
BRANCH  99 121
ATOM    121  CB  HIS A   2       2.155  22.403  -2.960 -0.04  1.91    -0.041 C 
ATOM    122  HB3 HIS A   2       1.566  22.573  -3.741  0.08  1.49     0.081 H 
ATOM    123  HB2 HIS A   2       2.148  21.439  -2.721  0.08  1.49     0.081 H 
BRANCH 121 124
ATOM    124  CG  HIS A   2       3.554  22.795  -3.323 -0.00  1.91    -0.001 A 
ATOM    125  ND1 HIS A   2       3.886  23.840  -4.156 -0.15  1.82    -0.151 N 
ATOM    126  CE1 HIS A   2       5.241  23.884  -4.201 -0.02  1.91    -0.017 A 
ATOM    127  HD1 HIS A   2       3.279  24.441  -4.628  0.39  0.60     0.387 HD
ATOM    128  NE2 HIS A   2       5.800  22.946  -3.459 -0.17  1.82    -0.172 N 
ATOM    129  HE1 HIS A   2       5.752  24.568  -4.750  0.27  1.36     0.268 H 
ATOM    130  HE2 HIS A   2       6.746  22.771  -3.324  0.39  0.60     0.391 HD
ATOM    131  CD2 HIS A   2       4.732  22.260  -2.907 -0.11  1.91    -0.114 A 
ATOM    132  HD2 HIS A   2       4.821  21.467  -2.279  0.23  1.41     0.232 H 
ENDBRANCH 121 124
ENDBRANCH  99 121
ENDBRANCH   1  99
TORSDOF 34
