MODEL 1
REMARK VINA RESULT:      -9.1      0.000      0.000
REMARK  21 active torsions:
REMARK  status: ('A' for Active; 'I' for Inactive)
REMARK    1  A    between atoms: N_1  and  CA_2 
REMARK    2  A    between atoms: CA_2  and  C_3 
REMARK    3  A    between atoms: CA_2  and  CB_5 
REMARK       I    between atoms: C_3  and  N_19 
REMARK    4  A    between atoms: CB_5  and  CG2_7 
REMARK    5  A    between atoms: CB_5  and  CG1_6 
REMARK    6  A    between atoms: N_19  and  CA_20 
REMARK    7  A    between atoms: CA_20  and  CB_23 
REMARK    8  A    between atoms: CA_20  and  C_21 
REMARK       I    between atoms: C_21  and  N_35 
REMARK    9  A    between atoms: CB_23  and  CG2_25 
REMARK   10  A    between atoms: CB_23  and  CG1_24 
REMARK       I    between atoms: N_35  and  CA_36 
REMARK       I    between atoms: CA_36  and  C_37 
REMARK       I    between atoms: CA_36  and  CB_40 
REMARK       I    between atoms: C_37  and  N_53 
REMARK       I    between atoms: CG_39  and  CB_40 
REMARK       I    between atoms: N_53  and  CA_54 
REMARK       I    between atoms: CA_54  and  CB_57 
REMARK       I    between atoms: CA_54  and  C_55 
REMARK       I    between atoms: C_55  and  N_73 
REMARK       I    between atoms: CB_57  and  CG_58 
REMARK       I    between atoms: N_73  and  CA_74 
REMARK       I    between atoms: CA_74  and  C_75 
REMARK       I    between atoms: CA_74  and  CB_77 
REMARK       I    between atoms: C_75  and  N_93 
REMARK       I    between atoms: CB_77  and  CG_78 
REMARK       I    between atoms: N_93  and  CA_94 
REMARK       I    between atoms: CA_94  and  C_95 
REMARK       I    between atoms: CA_94  and  CB_97 
REMARK       I    between atoms: C_95  and  N_115 
REMARK       I    between atoms: CB_97  and  CG_98 
REMARK       I    between atoms: CG_98  and  CD_99 
REMARK       I    between atoms: CD_99  and  CE_100 
REMARK       I    between atoms: CE_100  and  NZ_101 
REMARK       I    between atoms: N_115  and  CA_116 
REMARK       I    between atoms: CA_116  and  C_117 
REMARK       I    between atoms: CA_116  and  CB_119 
REMARK       I    between atoms: C_117  and  N_129 
REMARK       I    between atoms: CB_119  and  CG_120 
REMARK       I    between atoms: CG_120  and  ND2_126 
REMARK   11  A    between atoms: N_129  and  CA_130 
REMARK   12  A    between atoms: CA_130  and  CB_133 
REMARK   13  A    between atoms: CA_130  and  C_131 
REMARK       I    between atoms: C_131  and  N_148 
REMARK   14  A    between atoms: CB_133  and  CG2_135 
REMARK   15  A    between atoms: CB_133  and  CG1_134 
REMARK   16  A    between atoms: CG1_134  and  CD1_136 
REMARK   17  A    between atoms: N_148  and  CA_149 
REMARK   18  A    between atoms: CA_149  and  CB_152 
REMARK   19  A    between atoms: CA_149  and  C_150 
REMARK   20  A    between atoms: CB_152  and  CG2_154 
REMARK   21  A    between atoms: CB_152  and  CG1_153 
ROOT
ATOM      1  C   VAL A   2      -1.278  26.266   0.731  0.60  1.91     0.597 C 
ATOM      2  O   VAL A   2      -1.398  25.153   0.222 -0.57  1.66    -0.568 OA
ATOM      3  N   HIS A   3      -2.336  27.027   1.051 -0.35  1.82    -0.348 N 
ATOM      4  CA  HIS A   3      -3.679  26.628   0.772 -0.14  1.91    -0.135 C 
ATOM      5  C   HIS A   3      -3.927  26.876  -0.681  0.73  1.91     0.734 C 
ATOM      6  O   HIS A   3      -4.194  28.002  -1.096 -0.59  1.66    -0.589 OA
ATOM      7  CG  HIS A   3      -4.201  28.869   1.769 -0.00  1.91    -0.001 A 
ATOM      8  CB  HIS A   3      -4.681  27.456   1.588 -0.04  1.91    -0.041 C 
ATOM      9  HB2 HIS A   3      -5.552  27.478   1.110  0.08  1.49     0.081 H 
ATOM     10  HB3 HIS A   3      -4.789  27.043   2.486  0.08  1.49     0.081 H 
ATOM     11  H   HIS A   3      -2.075  27.927   1.519  0.27  0.60     0.275 HD
ATOM     12  HA  HIS A   3      -3.773  25.650   0.951  0.12  1.39     0.121 H 
ATOM     13  CD2 HIS A   3      -3.593  29.444   2.849 -0.11  1.91    -0.114 A 
ATOM     14  HE2 HIS A   3      -2.850  31.400   3.181  0.39  0.60     0.391 HD
ATOM     15  HD1 HIS A   3      -4.651  29.787  -0.085  0.39  0.60     0.387 HD
ATOM     16  HD2 HIS A   3      -3.396  28.968   3.722  0.23  1.41     0.232 H 
ATOM     17  CE1 HIS A   3      -3.709  30.968   1.351 -0.02  1.91    -0.017 A 
ATOM     18  ND1 HIS A   3      -4.272  29.854   0.813 -0.15  1.82    -0.151 N 
ATOM     19  NE2 HIS A   3      -3.284  30.765   2.584 -0.17  1.82    -0.172 N 
ATOM     20  HE1 HIS A   3      -3.632  31.844   0.848  0.27  1.36     0.268 H 
ATOM     21  N   PHE A   4      -3.779  25.816  -1.499 -0.42  1.82    -0.416 N 
ATOM     22  CA  PHE A   4      -3.946  25.913  -2.917 -0.00  1.91    -0.002 C 
ATOM     23  C   PHE A   4      -5.397  26.070  -3.291  0.60  1.91     0.597 C 
ATOM     24  O   PHE A   4      -5.743  26.982  -4.040 -0.57  1.66    -0.568 OA
ATOM     25  CB  PHE A   4      -3.391  24.661  -3.626 -0.03  1.91    -0.034 C 
ATOM     26  CG  PHE A   4      -3.061  25.008  -5.041  0.01  1.91     0.012 A 
ATOM     27  CD1 PHE A   4      -4.014  24.979  -6.031 -0.13  1.91    -0.126 A 
ATOM     28  CD2 PHE A   4      -1.771  25.357  -5.372 -0.13  1.91    -0.126 A 
ATOM     29  CE1 PHE A   4      -3.688  25.297  -7.329 -0.17  1.91    -0.170 A 
ATOM     30  CE2 PHE A   4      -1.441  25.677  -6.668 -0.17  1.91    -0.170 A 
ATOM     31  CZ  PHE A   4      -2.401  25.647  -7.648 -0.11  1.91    -0.107 A 
ATOM     32  HZ  PHE A   4      -2.165  25.879  -8.595  0.13  1.46     0.130 H 
ATOM     33  HA  PHE A   4      -3.473  26.754  -3.221  0.10  1.39     0.098 H 
ATOM     34  HE1 PHE A   4      -4.406  25.271  -8.043  0.14  1.46     0.143 H 
ATOM     35  HE2 PHE A   4      -0.482  25.934  -6.894  0.14  1.46     0.143 H 
ATOM     36  H   PHE A   4      -3.533  24.934  -0.994  0.27  0.60     0.272 HD
ATOM     37  HD2 PHE A   4      -1.064  25.378  -4.659  0.13  1.46     0.133 H 
ATOM     38  HD1 PHE A   4      -4.956  24.725  -5.810  0.13  1.46     0.133 H 
ATOM     39  HB3 PHE A   4      -4.089  23.989  -3.624  0.03  1.49     0.029 H 
ATOM     40  HB2 PHE A   4      -2.577  24.402  -3.170  0.03  1.49     0.029 H 
ATOM     41  N   PHE A   5      -6.301  25.206  -2.763 -0.42  1.82    -0.416 N 
ATOM     42  CA  PHE A   5      -7.677  25.245  -3.209 -0.00  1.91    -0.002 C 
ATOM     43  C   PHE A   5      -8.639  25.463  -2.081  0.60  1.91     0.597 C 
ATOM     44  O   PHE A   5      -8.746  24.641  -1.173 -0.57  1.66    -0.568 OA
ATOM     45  CB  PHE A   5      -8.186  23.917  -3.796 -0.03  1.91    -0.034 C 
ATOM     46  CG  PHE A   5      -7.565  23.637  -5.113  0.01  1.91     0.012 A 
ATOM     47  CD1 PHE A   5      -6.379  22.947  -5.202 -0.13  1.91    -0.126 A 
ATOM     48  CD2 PHE A   5      -8.191  24.055  -6.263 -0.13  1.91    -0.126 A 
ATOM     49  CE1 PHE A   5      -5.821  22.693  -6.432 -0.17  1.91    -0.170 A 
ATOM     50  CE2 PHE A   5      -7.636  23.804  -7.492 -0.17  1.91    -0.170 A 
ATOM     51  CZ  PHE A   5      -6.450  23.115  -7.578 -0.11  1.91    -0.107 A 
ATOM     52  HZ  PHE A   5      -6.042  22.919  -8.473  0.13  1.46     0.130 H 
ATOM     53  HA  PHE A   5      -7.760  26.043  -3.832  0.10  1.39     0.098 H 
ATOM     54  HE1 PHE A   5      -4.940  22.193  -6.487  0.14  1.46     0.143 H 
ATOM     55  HE2 PHE A   5      -8.103  24.129  -8.334  0.14  1.46     0.143 H 
ATOM     56  H   PHE A   5      -5.924  24.566  -2.059  0.27  0.60     0.272 HD
ATOM     57  HD2 PHE A   5      -9.065  24.547  -6.202  0.13  1.46     0.133 H 
ATOM     58  HD1 PHE A   5      -5.922  22.627  -4.377  0.13  1.46     0.133 H 
ATOM     59  HB3 PHE A   5      -9.155  24.001  -3.914  0.03  1.49     0.029 H 
ATOM     60  HB2 PHE A   5      -7.938  23.205  -3.170  0.03  1.49     0.029 H 
ATOM     61  N   LYS A   6      -9.306  26.631  -2.053 -0.35  1.82    -0.348 N 
ATOM     62  CA  LYS A   6     -10.421  26.819  -1.170 -0.24  1.91    -0.240 C 
ATOM     63  C   LYS A   6     -11.716  26.400  -1.808  0.73  1.91     0.734 C 
ATOM     64  O   LYS A   6     -12.520  25.692  -1.206 -0.59  1.66    -0.589 OA
ATOM     65  CB  LYS A   6     -10.516  28.273  -0.694 -0.01  1.91    -0.009 C 
ATOM     66  CG  LYS A   6      -9.407  28.579   0.310  0.02  1.91     0.019 C 
ATOM     67  CD  LYS A   6      -9.071  30.061   0.428 -0.05  1.91    -0.048 C 
ATOM     68  CE  LYS A   6      -8.140  30.531  -0.691 -0.01  1.91    -0.014 C 
ATOM     69  NZ  LYS A   6      -6.872  29.766  -0.642 -0.39  1.82    -0.385 N 
ATOM     70  HA  LYS A   6     -10.277  26.266  -0.330  0.14  1.39     0.143 H 
ATOM     71  HE2 LYS A   6      -8.589  30.378  -1.566  0.11  1.10     0.114 H 
ATOM     72  HE3 LYS A   6      -7.952  31.500  -0.564  0.11  1.10     0.114 H 
ATOM     73  HG2 LYS A   6      -9.690  28.240   1.219  0.01  1.49     0.010 H 
ATOM     74  HG3 LYS A   6      -8.574  28.080   0.036  0.01  1.49     0.010 H 
ATOM     75  HZ1 LYS A   6      -6.240  30.122  -1.331  0.34  0.60     0.340 HD
ATOM     76  HZ3 LYS A   6      -6.461  29.857   0.265  0.34  0.60     0.340 HD
ATOM     77  HZ2 LYS A   6      -7.056  28.800  -0.828  0.34  0.60     0.340 HD
ATOM     78  HD3 LYS A   6      -8.618  30.222   1.301  0.06  1.49     0.062 H 
ATOM     79  HD2 LYS A   6      -9.915  30.589   0.377  0.06  1.49     0.062 H 
ATOM     80  H   LYS A   6      -8.942  27.345  -2.708  0.27  0.60     0.275 HD
ATOM     81  HB3 LYS A   6     -11.384  28.398  -0.250  0.04  1.49     0.036 H 
ATOM     82  HB2 LYS A   6     -10.405  28.863  -1.471  0.04  1.49     0.036 H 
ATOM     83  N   ASN A   7     -11.915  26.776  -3.092 -0.42  1.82    -0.416 N 
ATOM     84  CA  ASN A   7     -13.200  26.602  -3.716  0.01  1.91     0.014 C 
ATOM     85  C   ASN A   7     -14.232  27.250  -2.851  0.60  1.91     0.597 C 
ATOM     86  O   ASN A   7     -15.171  26.597  -2.395 -0.57  1.66    -0.568 OA
ATOM     87  CB  ASN A   7     -13.625  25.139  -3.933 -0.20  1.91    -0.204 C 
ATOM     88  CG  ASN A   7     -12.885  24.586  -5.141  0.71  1.91     0.713 C 
ATOM     89  HA  ASN A   7     -13.180  27.097  -4.585  0.10  1.39     0.105 H 
ATOM     90  H   ASN A   7     -11.085  27.182  -3.549  0.27  0.60     0.272 HD
ATOM     91  HB3 ASN A   7     -14.587  25.119  -4.112  0.08  1.49     0.080 H 
ATOM     92  HB2 ASN A   7     -13.373  24.620  -3.142  0.08  1.49     0.080 H 
ATOM     93  OD1 ASN A   7     -11.856  25.114  -5.557 -0.59  1.66    -0.593 OA
ATOM     94  ND2 ASN A   7     -13.445  23.499  -5.737 -0.92  1.82    -0.919 N 
ATOM     95 2HD2 ASN A   7     -13.003  23.097  -6.523  0.42  0.60     0.420 HD
ATOM     96 1HD2 ASN A   7     -14.292  23.129  -5.370  0.42  0.60     0.420 HD
ATOM     97  N   ILE A   8     -14.079  28.564  -2.577 -0.42  1.82    -0.416 N 
ATOM     98  H   ILE A   8     -13.259  29.003  -2.987  0.27  0.60     0.272 HD
ENDROOT
BRANCH  97  99
ATOM     99  CA  ILE A   8     -15.063  29.205  -1.752 -0.06  1.91    -0.060 C 
ATOM    100  HA  ILE A   8     -15.791  28.524  -1.596  0.09  1.39     0.087 H 
BRANCH  99 101
ATOM    101  CB  ILE A   8     -14.538  29.726  -0.448  0.13  1.91     0.130 C 
ATOM    102  HB  ILE A   8     -13.876  30.456  -0.630  0.02  1.49     0.019 H 
BRANCH 101 103
ATOM    103  CG2 ILE A   8     -15.725  30.336   0.313 -0.32  1.91    -0.320 C 
ATOM    104 2HG2 ILE A   8     -16.557  29.868   0.030  0.09  1.49     0.088 H 
ATOM    105 1HG2 ILE A   8     -15.573  30.212   1.290  0.09  1.49     0.088 H 
ATOM    106 3HG2 ILE A   8     -15.779  31.305   0.091  0.09  1.49     0.088 H 
ENDBRANCH 101 103
BRANCH 101 107
ATOM    107  CG1 ILE A   8     -13.802  28.632   0.339 -0.04  1.91    -0.043 C 
ATOM    108 3HG1 ILE A   8     -13.074  28.271  -0.233  0.02  1.49     0.024 H 
ATOM    109 2HG1 ILE A   8     -14.446  27.909   0.554  0.02  1.49     0.024 H 
BRANCH 107 110
ATOM    110  CD1 ILE A   8     -13.186  29.147   1.641 -0.07  1.91    -0.066 C 
ATOM    111 1HD1 ILE A   8     -13.216  30.143   1.641  0.02  1.49     0.019 H 
ATOM    112 2HD1 ILE A   8     -12.242  28.835   1.697  0.02  1.49     0.019 H 
ATOM    113 3HD1 ILE A   8     -13.709  28.790   2.409  0.02  1.49     0.019 H 
ENDBRANCH 107 110
ENDBRANCH 101 107
ENDBRANCH  99 101
BRANCH  99 114
ATOM    114  C   ILE A   8     -15.680  30.349  -2.477  0.60  1.91     0.597 C 
ATOM    115  N   VAL A   9     -14.911  31.446  -2.607 -0.38  1.82    -0.382 N 
ATOM    116  H   VAL A   9     -13.991  31.376  -2.138  0.27  0.60     0.268 HD
ATOM    117  O   ILE A   8     -16.842  30.309  -2.874 -0.57  1.66    -0.568 OA
BRANCH 115 118
ATOM    118  CA  VAL A   9     -15.372  32.585  -3.341 -0.34  1.91    -0.344 C 
ATOM    119  HA  VAL A   9     -16.157  32.324  -3.890  0.14  1.39     0.144 H 
BRANCH 118 120
ATOM    120  CB  VAL A   9     -15.647  33.775  -2.469  0.19  1.91     0.194 C 
ATOM    121  HB  VAL A   9     -15.454  34.601  -2.980  0.03  1.49     0.031 H 
BRANCH 120 122
ATOM    122  CG2 VAL A   9     -14.758  33.686  -1.215 -0.31  1.91    -0.306 C 
ATOM    123 3HG2 VAL A   9     -15.339  33.699  -0.406  0.08  1.49     0.084 H 
ATOM    124 2HG2 VAL A   9     -14.237  32.838  -1.248  0.08  1.49     0.084 H 
ATOM    125 1HG2 VAL A   9     -14.139  34.467  -1.203  0.08  1.49     0.084 H 
ENDBRANCH 120 122
BRANCH 120 126
ATOM    126  CG1 VAL A   9     -17.154  33.809  -2.159 -0.31  1.91    -0.306 C 
ATOM    127 2HG1 VAL A   9     -17.484  32.876  -2.046  0.08  1.49     0.084 H 
ATOM    128 1HG1 VAL A   9     -17.632  34.249  -2.916  0.08  1.49     0.084 H 
ATOM    129 3HG1 VAL A   9     -17.301  34.325  -1.319  0.08  1.49     0.084 H 
ENDBRANCH 120 126
ENDBRANCH 118 120
BRANCH 118 130
ATOM    130  C   VAL A   9     -14.247  32.969  -4.294  0.83  1.91     0.835 C 
ATOM    131  O   VAL A   9     -13.444  32.067  -4.655 -0.82  1.66    -0.817 OA
ATOM    132  OXT VAL A   9     -14.178  34.168  -4.676 -0.82  1.66    -0.817 OA
ENDBRANCH 118 130
ENDBRANCH 115 118
ENDBRANCH  99 114
ENDBRANCH  97  99
BRANCH   1 133
ATOM    133  CA  VAL A   2       0.079  26.809   1.046 -0.09  1.91    -0.087 C 
ATOM    134  HA  VAL A   2       0.437  26.317   1.823  0.10  1.39     0.097 H 
BRANCH 133 135
ATOM    135  N   VAL A   2       0.840  26.481  -0.105 -0.42  1.82    -0.416 N 
ATOM    136  H   VAL A   2       0.448  26.395  -1.071  0.27  0.60     0.272 HD
ATOM    137  C   VAL A   1       2.154  26.250  -0.038  0.62  1.91     0.616 C 
ATOM    138  O   VAL A   1       2.733  26.122   1.033 -0.57  1.66    -0.572 OA
BRANCH 137 139
ATOM    139  CA  VAL A   1       2.870  26.121  -1.337 -0.01  1.91    -0.005 C 
ATOM    140  HA  VAL A   1       3.090  27.029  -1.687  0.11  1.10     0.109 H 
BRANCH 139 141
ATOM    141  CB  VAL A   1       2.033  25.271  -2.256  0.32  1.91     0.320 C 
ATOM    142  HB  VAL A   1       1.127  25.164  -1.858 -0.02  1.49    -0.022 H 
BRANCH 141 143
ATOM    143  CG2 VAL A   1       2.710  23.901  -2.395 -0.31  1.91    -0.313 C 
ATOM    144 1HG2 VAL A   1       2.010  23.192  -2.415  0.07  1.49     0.073 H 
ATOM    145 2HG2 VAL A   1       3.316  23.758  -1.616  0.07  1.49     0.073 H 
ATOM    146 3HG2 VAL A   1       3.237  23.882  -3.242  0.07  1.49     0.073 H 
ENDBRANCH 141 143
BRANCH 141 147
ATOM    147  CG1 VAL A   1       1.827  25.992  -3.598 -0.31  1.91    -0.313 C 
ATOM    148 1HG1 VAL A   1       1.136  26.702  -3.483  0.07  1.49     0.073 H 
ATOM    149 2HG1 VAL A   1       2.689  26.401  -3.884  0.07  1.49     0.073 H 
ATOM    150 3HG1 VAL A   1       1.523  25.330  -4.280  0.07  1.49     0.073 H 
ENDBRANCH 141 147
ENDBRANCH 139 141
BRANCH 139 151
ATOM    151  N   VAL A   1       4.161  25.427  -1.083  0.06  1.82     0.058 N 
ATOM    152  H   VAL A   1       4.140  25.028  -0.169  0.23  0.60     0.227 HD
ATOM    153  H2  VAL A   1       4.284  24.709  -1.766  0.23  0.60     0.227 HD
ATOM    154  H3  VAL A   1       4.904  26.090  -1.148  0.23  0.60     0.227 HD
ENDBRANCH 139 151
ENDBRANCH 137 139
ENDBRANCH 133 135
BRANCH 133 155
ATOM    155  CB  VAL A   2      -0.018  28.309   1.222  0.30  1.91     0.298 C 
ATOM    156  HB  VAL A   2      -0.957  28.542   1.478 -0.03  1.49    -0.030 H 
BRANCH 155 157
ATOM    157  CG2 VAL A   2       0.310  28.975  -0.126 -0.32  1.91    -0.319 C 
ATOM    158 3HG2 VAL A   2       0.623  28.274  -0.763  0.08  1.49     0.079 H 
ATOM    159 1HG2 VAL A   2       1.028  29.653   0.016  0.08  1.49     0.079 H 
ATOM    160 2HG2 VAL A   2      -0.513  29.415  -0.476  0.08  1.49     0.079 H 
ENDBRANCH 155 157
BRANCH 155 161
ATOM    161  CG1 VAL A   2       0.874  28.809   2.375 -0.32  1.91    -0.319 C 
ATOM    162 2HG1 VAL A   2       1.682  28.229   2.436  0.08  1.49     0.079 H 
ATOM    163 3HG1 VAL A   2       1.146  29.751   2.190  0.08  1.49     0.079 H 
ATOM    164 1HG1 VAL A   2       0.358  28.765   3.227  0.08  1.49     0.079 H 
ENDBRANCH 155 161
ENDBRANCH 133 155
ENDBRANCH   1 133
TORSDOF 44
ENDMDL
