MODEL 1
REMARK VINA RESULT:      -6.3      0.000      0.000
REMARK  21 active torsions:
REMARK  status: ('A' for Active; 'I' for Inactive)
REMARK    1  A    between atoms: N_1  and  CA_2 
REMARK    2  A    between atoms: CA_2  and  C_3 
REMARK    3  A    between atoms: CA_2  and  CB_5 
REMARK       I    between atoms: C_3  and  N_19 
REMARK    4  A    between atoms: CB_5  and  CG2_7 
REMARK    5  A    between atoms: CB_5  and  CG1_6 
REMARK    6  A    between atoms: N_19  and  CA_20 
REMARK    7  A    between atoms: CA_20  and  CB_23 
REMARK    8  A    between atoms: CA_20  and  C_21 
REMARK       I    between atoms: C_21  and  N_35 
REMARK    9  A    between atoms: CB_23  and  CG1_24 
REMARK   10  A    between atoms: CB_23  and  CG2_25 
REMARK       I    between atoms: N_35  and  CA_36 
REMARK       I    between atoms: CA_36  and  CB_40 
REMARK       I    between atoms: CA_36  and  C_37 
REMARK       I    between atoms: C_37  and  N_53 
REMARK       I    between atoms: CG_39  and  CB_40 
REMARK       I    between atoms: N_53  and  CA_54 
REMARK       I    between atoms: CA_54  and  CB_57 
REMARK       I    between atoms: CA_54  and  C_55 
REMARK       I    between atoms: C_55  and  N_73 
REMARK       I    between atoms: CB_57  and  CG_58 
REMARK       I    between atoms: N_73  and  CA_74 
REMARK       I    between atoms: CA_74  and  CB_77 
REMARK       I    between atoms: CA_74  and  C_75 
REMARK       I    between atoms: C_75  and  N_93 
REMARK       I    between atoms: CB_77  and  CG_78 
REMARK       I    between atoms: N_93  and  CA_94 
REMARK       I    between atoms: CA_94  and  C_95 
REMARK       I    between atoms: CA_94  and  CB_97 
REMARK       I    between atoms: C_95  and  N_115 
REMARK       I    between atoms: CB_97  and  CG_98 
REMARK       I    between atoms: CG_98  and  CD_99 
REMARK       I    between atoms: CD_99  and  CE_100 
REMARK       I    between atoms: CE_100  and  NZ_101 
REMARK       I    between atoms: N_115  and  CA_116 
REMARK       I    between atoms: CA_116  and  C_117 
REMARK       I    between atoms: CA_116  and  CB_119 
REMARK       I    between atoms: C_117  and  N_129 
REMARK       I    between atoms: CB_119  and  CG_120 
REMARK       I    between atoms: CG_120  and  ND2_126 
REMARK   11  A    between atoms: N_129  and  CA_130 
REMARK   12  A    between atoms: CA_130  and  C_131 
REMARK   13  A    between atoms: CA_130  and  CB_133 
REMARK       I    between atoms: C_131  and  N_148 
REMARK   14  A    between atoms: CB_133  and  CG2_135 
REMARK   15  A    between atoms: CB_133  and  CG1_134 
REMARK   16  A    between atoms: CG1_134  and  CD1_136 
REMARK   17  A    between atoms: N_148  and  CA_149 
REMARK   18  A    between atoms: CA_149  and  C_150 
REMARK   19  A    between atoms: CA_149  and  CB_152 
REMARK   20  A    between atoms: CB_152  and  CG2_154 
REMARK   21  A    between atoms: CB_152  and  CG1_153 
ROOT
ATOM      1  C   VAL A   2      -2.988  32.188  -0.677  0.60  1.91     0.597 C 
ATOM      2  O   VAL A   2      -3.440  33.318  -0.787 -0.57  1.66    -0.568 OA
ATOM      3  N   HIS A   3      -2.170  31.676  -1.614 -0.35  1.82    -0.348 N 
ATOM      4  CA  HIS A   3      -2.136  32.384  -2.858 -0.14  1.91    -0.135 C 
ATOM      5  C   HIS A   3      -3.293  32.060  -3.763  0.73  1.91     0.734 C 
ATOM      6  O   HIS A   3      -3.720  32.920  -4.531 -0.59  1.66    -0.589 OA
ATOM      7  CG  HIS A   3       0.172  31.309  -3.592 -0.00  1.91    -0.001 A 
ATOM      8  CB  HIS A   3      -0.796  32.449  -3.632 -0.04  1.91    -0.041 C 
ATOM      9  HB2 HIS A   3      -1.016  32.641  -4.627  0.08  1.49     0.081 H 
ATOM     10  HB3 HIS A   3      -0.294  33.300  -3.319  0.08  1.49     0.081 H 
ATOM     11  H   HIS A   3      -1.658  30.854  -1.367  0.27  0.60     0.275 HD
ATOM     12  HA  HIS A   3      -2.157  33.386  -2.663  0.12  1.39     0.121 H 
ATOM     13  CD2 HIS A   3       0.569  30.472  -4.591 -0.11  1.91    -0.114 A 
ATOM     14  HE2 HIS A   3       2.075  28.984  -4.673  0.39  0.60     0.391 HD
ATOM     15  HD1 HIS A   3       0.945  31.420  -1.625  0.39  0.60     0.387 HD
ATOM     16  HD2 HIS A   3       0.163  30.444  -5.520  0.23  1.41     0.232 H 
ATOM     17  CE1 HIS A   3       1.811  30.023  -2.906 -0.02  1.91    -0.017 A 
ATOM     18  ND1 HIS A   3       0.967  31.011  -2.512 -0.15  1.82    -0.151 N 
ATOM     19  NE2 HIS A   3       1.605  29.666  -4.159 -0.17  1.82    -0.172 N 
ATOM     20  HE1 HIS A   3       2.511  29.620  -2.295  0.27  1.36     0.268 H 
ATOM     21  N   PHE A   4      -3.839  30.825  -3.714 -0.42  1.82    -0.416 N 
ATOM     22  CA  PHE A   4      -4.914  30.482  -4.616 -0.00  1.91    -0.002 C 
ATOM     23  C   PHE A   4      -6.223  30.454  -3.902  0.60  1.91     0.597 C 
ATOM     24  O   PHE A   4      -6.286  30.346  -2.682 -0.57  1.66    -0.568 OA
ATOM     25  CB  PHE A   4      -4.772  29.121  -5.312 -0.03  1.91    -0.034 C 
ATOM     26  CG  PHE A   4      -3.844  29.288  -6.464  0.01  1.91     0.012 A 
ATOM     27  CD1 PHE A   4      -4.304  29.856  -7.629 -0.13  1.91    -0.126 A 
ATOM     28  CD2 PHE A   4      -2.537  28.875  -6.394 -0.13  1.91    -0.126 A 
ATOM     29  CE1 PHE A   4      -3.476  30.013  -8.713 -0.17  1.91    -0.170 A 
ATOM     30  CE2 PHE A   4      -1.700  29.029  -7.472 -0.17  1.91    -0.170 A 
ATOM     31  CZ  PHE A   4      -2.166  29.607  -8.631 -0.11  1.91    -0.107 A 
ATOM     32  HZ  PHE A   4      -1.552  29.733  -9.415  0.13  1.46     0.130 H 
ATOM     33  HA  PHE A   4      -4.963  31.218  -5.307  0.10  1.39     0.098 H 
ATOM     34  HE1 PHE A   4      -3.834  30.424  -9.563  0.14  1.46     0.143 H 
ATOM     35  HE2 PHE A   4      -0.733  28.713  -7.410  0.14  1.46     0.143 H 
ATOM     36  H   PHE A   4      -3.431  30.201  -3.012  0.27  0.60     0.272 HD
ATOM     37  HD2 PHE A   4      -2.190  28.459  -5.550  0.13  1.46     0.133 H 
ATOM     38  HD1 PHE A   4      -5.256  30.162  -7.691  0.13  1.46     0.133 H 
ATOM     39  HB3 PHE A   4      -5.642  28.868  -5.646  0.03  1.49     0.029 H 
ATOM     40  HB2 PHE A   4      -4.377  28.506  -4.679  0.03  1.49     0.029 H 
ATOM     41  N   PHE A   5      -7.324  30.602  -4.666 -0.42  1.82    -0.416 N 
ATOM     42  CA  PHE A   5      -8.599  30.731  -4.030 -0.00  1.91    -0.002 C 
ATOM     43  C   PHE A   5      -8.954  29.521  -3.201  0.60  1.91     0.597 C 
ATOM     44  O   PHE A   5      -8.758  29.519  -1.986 -0.57  1.66    -0.568 OA
ATOM     45  CB  PHE A   5      -9.688  30.936  -5.101 -0.03  1.91    -0.034 C 
ATOM     46  CG  PHE A   5     -10.951  31.458  -4.507  0.01  1.91     0.012 A 
ATOM     47  CD1 PHE A   5     -11.041  32.781  -4.141 -0.13  1.91    -0.126 A 
ATOM     48  CD2 PHE A   5     -12.051  30.647  -4.349 -0.13  1.91    -0.126 A 
ATOM     49  CE1 PHE A   5     -12.199  33.285  -3.600 -0.17  1.91    -0.170 A 
ATOM     50  CE2 PHE A   5     -13.212  31.147  -3.809 -0.17  1.91    -0.170 A 
ATOM     51  CZ  PHE A   5     -13.290  32.467  -3.434 -0.11  1.91    -0.107 A 
ATOM     52  HZ  PHE A   5     -14.136  32.834  -3.042  0.13  1.46     0.130 H 
ATOM     53  HA  PHE A   5      -8.539  31.516  -3.388  0.10  1.39     0.098 H 
ATOM     54  HE1 PHE A   5     -12.241  34.257  -3.326  0.14  1.46     0.143 H 
ATOM     55  HE2 PHE A   5     -14.016  30.531  -3.687  0.14  1.46     0.143 H 
ATOM     56  H   PHE A   5      -7.152  30.610  -5.674  0.27  0.60     0.272 HD
ATOM     57  HD2 PHE A   5     -12.006  29.686  -4.630  0.13  1.46     0.133 H 
ATOM     58  HD1 PHE A   5     -10.255  33.388  -4.269  0.13  1.46     0.133 H 
ATOM     59  HB3 PHE A   5      -9.868  30.063  -5.507  0.03  1.49     0.029 H 
ATOM     60  HB2 PHE A   5      -9.348  31.593  -5.744  0.03  1.49     0.029 H 
ATOM     61  N   LYS A   6      -9.471  28.450  -3.845 -0.35  1.82    -0.348 N 
ATOM     62  CA  LYS A   6      -9.891  27.262  -3.142 -0.24  1.91    -0.240 C 
ATOM     63  C   LYS A   6      -8.800  26.275  -2.882  0.73  1.91     0.734 C 
ATOM     64  O   LYS A   6      -8.593  25.821  -1.757 -0.59  1.66    -0.589 OA
ATOM     65  CB  LYS A   6     -10.996  26.501  -3.893 -0.01  1.91    -0.009 C 
ATOM     66  CG  LYS A   6     -11.544  25.306  -3.115  0.02  1.91     0.019 C 
ATOM     67  CD  LYS A   6     -12.328  25.697  -1.864 -0.05  1.91    -0.048 C 
ATOM     68  CE  LYS A   6     -12.939  24.500  -1.138 -0.01  1.91    -0.014 C 
ATOM     69  NZ  LYS A   6     -13.951  23.852  -2.002 -0.39  1.82    -0.385 N 
ATOM     70  HA  LYS A   6     -10.303  27.544  -2.244  0.14  1.39     0.143 H 
ATOM     71  HE2 LYS A   6     -12.215  23.851  -0.926  0.11  1.10     0.114 H 
ATOM     72  HE3 LYS A   6     -13.370  24.819  -0.299  0.11  1.10     0.114 H 
ATOM     73  HG2 LYS A   6     -12.150  24.775  -3.721  0.01  1.49     0.010 H 
ATOM     74  HG3 LYS A   6     -10.775  24.715  -2.842  0.01  1.49     0.010 H 
ATOM     75  HZ1 LYS A   6     -14.317  23.042  -1.540  0.34  0.60     0.340 HD
ATOM     76  HZ3 LYS A   6     -14.697  24.494  -2.186  0.34  0.60     0.340 HD
ATOM     77  HZ2 LYS A   6     -13.528  23.578  -2.867  0.34  0.60     0.340 HD
ATOM     78  HD3 LYS A   6     -13.067  26.317  -2.128  0.06  1.49     0.062 H 
ATOM     79  HD2 LYS A   6     -11.710  26.166  -1.232  0.06  1.49     0.062 H 
ATOM     80  H   LYS A   6      -9.531  28.573  -4.877  0.27  0.60     0.275 HD
ATOM     81  HB3 LYS A   6     -10.616  26.170  -4.750  0.04  1.49     0.036 H 
ATOM     82  HB2 LYS A   6     -11.744  27.131  -4.066  0.04  1.49     0.036 H 
ATOM     83  N   ASN A   7      -8.063  25.940  -3.955 -0.42  1.82    -0.416 N 
ATOM     84  CA  ASN A   7      -7.143  24.842  -3.964  0.01  1.91     0.014 C 
ATOM     85  C   ASN A   7      -5.784  25.314  -3.629  0.60  1.91     0.597 C 
ATOM     86  O   ASN A   7      -5.570  26.389  -3.083 -0.57  1.66    -0.568 OA
ATOM     87  CB  ASN A   7      -7.069  24.147  -5.331 -0.20  1.91    -0.204 C 
ATOM     88  CG  ASN A   7      -8.460  23.619  -5.640  0.71  1.91     0.713 C 
ATOM     89  HA  ASN A   7      -7.435  24.202  -3.238  0.10  1.39     0.105 H 
ATOM     90  H   ASN A   7      -8.231  26.568  -4.782  0.27  0.60     0.272 HD
ATOM     91  HB3 ASN A   7      -6.453  23.397  -5.266  0.08  1.49     0.080 H 
ATOM     92  HB2 ASN A   7      -6.824  24.807  -6.002  0.08  1.49     0.080 H 
ATOM     93  OD1 ASN A   7      -9.263  24.296  -6.279 -0.59  1.66    -0.593 OA
ATOM     94  ND2 ASN A   7      -8.760  22.378  -5.171 -0.92  1.82    -0.919 N 
ATOM     95 2HD2 ASN A   7      -9.645  21.990  -5.350  0.42  0.60     0.420 HD
ATOM     96 1HD2 ASN A   7      -8.070  21.881  -4.650  0.42  0.60     0.420 HD
ATOM     97  N   ILE A   8      -4.831  24.435  -3.975 -0.42  1.82    -0.416 N 
ATOM     98  H   ILE A   8      -5.227  23.603  -4.506  0.27  0.60     0.272 HD
ENDROOT
BRANCH   1  99
ATOM     99  CA  VAL A   2      -3.162  31.477   0.611 -0.09  1.91    -0.087 C 
ATOM    100  HA  VAL A   2      -3.410  32.139   1.312  0.10  1.39     0.097 H 
BRANCH  99 101
ATOM    101  CB  VAL A   2      -1.881  30.833   1.055  0.30  1.91     0.298 C 
ATOM    102  HB  VAL A   2      -1.348  30.594   0.261 -0.03  1.49    -0.030 H 
BRANCH 101 103
ATOM    103  CG1 VAL A   2      -1.067  31.899   1.810 -0.32  1.91    -0.319 C 
ATOM    104 1HG1 VAL A   2      -1.208  32.785   1.375  0.08  1.49     0.079 H 
ATOM    105 3HG1 VAL A   2      -0.100  31.654   1.776  0.08  1.49     0.079 H 
ATOM    106 2HG1 VAL A   2      -1.376  31.933   2.757  0.08  1.49     0.079 H 
ENDBRANCH 101 103
BRANCH 101 107
ATOM    107  CG2 VAL A   2      -2.193  29.581   1.890 -0.32  1.91    -0.319 C 
ATOM    108 3HG2 VAL A   2      -1.897  29.739   2.830  0.08  1.49     0.079 H 
ATOM    109 1HG2 VAL A   2      -1.701  28.805   1.503  0.08  1.49     0.079 H 
ATOM    110 2HG2 VAL A   2      -3.175  29.412   1.865  0.08  1.49     0.079 H 
ENDBRANCH 101 107
ENDBRANCH  99 101
BRANCH  99 111
ATOM    111  N   VAL A   2      -4.263  30.582   0.422 -0.42  1.82    -0.416 N 
ATOM    112  H   VAL A   2      -4.246  29.721  -0.129  0.27  0.60     0.272 HD
ATOM    113  C   VAL A   1      -5.440  30.864   1.006  0.62  1.91     0.616 C 
ATOM    114  O   VAL A   1      -5.601  31.850   1.724 -0.57  1.66    -0.572 OA
BRANCH 113 115
ATOM    115  CA  VAL A   1      -6.557  29.918   0.747 -0.01  1.91    -0.005 C 
ATOM    116  HA  VAL A   1      -7.323  30.416   0.323  0.11  1.10     0.109 H 
BRANCH 115 117
ATOM    117  CB  VAL A   1      -6.960  29.303   2.055  0.32  1.91     0.320 C 
ATOM    118  HB  VAL A   1      -7.029  30.016   2.740 -0.02  1.49    -0.022 H 
BRANCH 117 119
ATOM    119  CG2 VAL A   1      -5.891  28.273   2.454 -0.31  1.91    -0.313 C 
ATOM    120 1HG2 VAL A   1      -5.151  28.741   2.929  0.07  1.49     0.073 H 
ATOM    121 2HG2 VAL A   1      -5.542  27.833   1.631  0.07  1.49     0.073 H 
ATOM    122 3HG2 VAL A   1      -6.305  27.594   3.055  0.07  1.49     0.073 H 
ENDBRANCH 117 119
BRANCH 117 123
ATOM    123  CG1 VAL A   1      -8.372  28.713   1.912 -0.31  1.91    -0.313 C 
ATOM    124 3HG1 VAL A   1      -8.305  27.721   1.838  0.07  1.49     0.073 H 
ATOM    125 2HG1 VAL A   1      -8.801  29.085   1.093  0.07  1.49     0.073 H 
ATOM    126 1HG1 VAL A   1      -8.910  28.956   2.715  0.07  1.49     0.073 H 
ENDBRANCH 117 123
ENDBRANCH 115 117
BRANCH 115 127
ATOM    127  N   VAL A   1      -6.141  28.867  -0.208  0.06  1.82     0.058 N 
ATOM    128  H   VAL A   1      -5.160  28.949  -0.379  0.23  0.60     0.227 HD
ATOM    129  H3  VAL A   1      -6.645  28.982  -1.063  0.23  0.60     0.227 HD
ATOM    130  H2  VAL A   1      -6.343  27.969   0.183  0.23  0.60     0.227 HD
ENDBRANCH 115 127
ENDBRANCH 113 115
ENDBRANCH  99 111
ENDBRANCH   1  99
BRANCH  97 131
ATOM    131  CA  ILE A   8      -3.454  24.586  -3.674 -0.06  1.91    -0.060 C 
ATOM    132  HA  ILE A   8      -3.039  23.664  -3.747  0.09  1.39     0.087 H 
BRANCH 131 133
ATOM    133  C   ILE A   8      -3.263  25.041  -2.283  0.60  1.91     0.597 C 
ATOM    134  N   VAL A   9      -2.526  26.157  -2.216 -0.38  1.82    -0.382 N 
ATOM    135  H   VAL A   9      -2.163  26.455  -3.174  0.27  0.60     0.268 HD
ATOM    136  O   ILE A   8      -3.659  24.399  -1.307 -0.57  1.66    -0.568 OA
BRANCH 134 137
ATOM    137  CA  VAL A   9      -2.251  26.868  -1.026 -0.34  1.91    -0.344 C 
ATOM    138  HA  VAL A   9      -2.983  26.739  -0.385  0.14  1.39     0.144 H 
BRANCH 137 139
ATOM    139  C   VAL A   9      -2.299  28.319  -1.490  0.83  1.91     0.835 C 
ATOM    140  O   VAL A   9      -1.225  28.952  -1.666 -0.82  1.66    -0.817 OA
ATOM    141  OXT VAL A   9      -3.442  28.806  -1.699 -0.82  1.66    -0.817 OA
ENDBRANCH 137 139
BRANCH 137 142
ATOM    142  CB  VAL A   9      -0.878  26.553  -0.539  0.19  1.91     0.194 C 
ATOM    143  HB  VAL A   9      -0.393  27.395  -0.357  0.03  1.49     0.031 H 
BRANCH 142 144
ATOM    144  CG2 VAL A   9      -0.167  25.699  -1.604 -0.31  1.91    -0.306 C 
ATOM    145 1HG2 VAL A   9      -0.122  24.756  -1.285  0.08  1.49     0.084 H 
ATOM    146 2HG2 VAL A   9       0.752  26.056  -1.744  0.08  1.49     0.084 H 
ATOM    147 3HG2 VAL A   9      -0.684  25.747  -2.454  0.08  1.49     0.084 H 
ENDBRANCH 142 144
BRANCH 142 148
ATOM    148  CG1 VAL A   9      -1.013  25.844   0.821 -0.31  1.91    -0.306 C 
ATOM    149 1HG1 VAL A   9      -1.590  25.038   0.712  0.08  1.49     0.084 H 
ATOM    150 3HG1 VAL A   9      -1.427  26.472   1.476  0.08  1.49     0.084 H 
ATOM    151 2HG1 VAL A   9      -0.107  25.573   1.137  0.08  1.49     0.084 H 
ENDBRANCH 142 148
ENDBRANCH 137 142
ENDBRANCH 134 137
ENDBRANCH 131 133
BRANCH 131 152
ATOM    152  CB  ILE A   8      -2.781  25.505  -4.643  0.13  1.91     0.130 C 
ATOM    153  HB  ILE A   8      -2.803  26.427  -4.292  0.02  1.49     0.019 H 
BRANCH 152 154
ATOM    154  CG2 ILE A   8      -1.329  25.040  -4.832 -0.32  1.91    -0.320 C 
ATOM    155 1HG2 ILE A   8      -1.338  24.099  -5.158  0.09  1.49     0.088 H 
ATOM    156 3HG2 ILE A   8      -0.891  25.634  -5.501  0.09  1.49     0.088 H 
ATOM    157 2HG2 ILE A   8      -0.862  25.100  -3.955  0.09  1.49     0.088 H 
ENDBRANCH 152 154
BRANCH 152 158
ATOM    158  CG1 ILE A   8      -3.606  25.498  -5.949 -0.04  1.91    -0.043 C 
ATOM    159 2HG1 ILE A   8      -4.162  24.667  -5.961  0.02  1.49     0.024 H 
ATOM    160 3HG1 ILE A   8      -4.219  26.289  -5.929  0.02  1.49     0.024 H 
BRANCH 158 161
ATOM    161  CD1 ILE A   8      -2.777  25.556  -7.223 -0.07  1.91    -0.066 C 
ATOM    162 3HD1 ILE A   8      -2.723  26.503  -7.535  0.02  1.49     0.019 H 
ATOM    163 2HD1 ILE A   8      -1.861  25.211  -7.033  0.02  1.49     0.019 H 
ATOM    164 1HD1 ILE A   8      -3.212  24.994  -7.923  0.02  1.49     0.019 H 
ENDBRANCH 158 161
ENDBRANCH 152 158
ENDBRANCH 131 152
ENDBRANCH  97 131
TORSDOF 44
ENDMDL
