REMARK  21 active torsions:
REMARK  status: ('A' for Active; 'I' for Inactive)
REMARK    1  A    between atoms: N_1  and  CA_2 
REMARK    2  A    between atoms: CA_2  and  C_3 
REMARK    3  A    between atoms: CA_2  and  CB_5 
REMARK       I    between atoms: C_3  and  N_19 
REMARK    4  A    between atoms: CB_5  and  CG2_7 
REMARK    5  A    between atoms: CB_5  and  CG1_6 
REMARK    6  A    between atoms: N_19  and  CA_20 
REMARK    7  A    between atoms: CA_20  and  CB_23 
REMARK    8  A    between atoms: CA_20  and  C_21 
REMARK       I    between atoms: C_21  and  N_35 
REMARK    9  A    between atoms: CB_23  and  CG1_24 
REMARK   10  A    between atoms: CB_23  and  CG2_25 
REMARK       I    between atoms: N_35  and  CA_36 
REMARK       I    between atoms: CA_36  and  CB_40 
REMARK       I    between atoms: CA_36  and  C_37 
REMARK       I    between atoms: C_37  and  N_53 
REMARK       I    between atoms: CG_39  and  CB_40 
REMARK       I    between atoms: N_53  and  CA_54 
REMARK       I    between atoms: CA_54  and  CB_57 
REMARK       I    between atoms: CA_54  and  C_55 
REMARK       I    between atoms: C_55  and  N_73 
REMARK       I    between atoms: CB_57  and  CG_58 
REMARK       I    between atoms: N_73  and  CA_74 
REMARK       I    between atoms: CA_74  and  CB_77 
REMARK       I    between atoms: CA_74  and  C_75 
REMARK       I    between atoms: C_75  and  N_93 
REMARK       I    between atoms: CB_77  and  CG_78 
REMARK       I    between atoms: N_93  and  CA_94 
REMARK       I    between atoms: CA_94  and  C_95 
REMARK       I    between atoms: CA_94  and  CB_97 
REMARK       I    between atoms: C_95  and  N_115 
REMARK       I    between atoms: CB_97  and  CG_98 
REMARK       I    between atoms: CG_98  and  CD_99 
REMARK       I    between atoms: CD_99  and  CE_100 
REMARK       I    between atoms: CE_100  and  NZ_101 
REMARK       I    between atoms: N_115  and  CA_116 
REMARK       I    between atoms: CA_116  and  C_117 
REMARK       I    between atoms: CA_116  and  CB_119 
REMARK       I    between atoms: C_117  and  N_129 
REMARK       I    between atoms: CB_119  and  CG_120 
REMARK       I    between atoms: CG_120  and  ND2_126 
REMARK   11  A    between atoms: N_129  and  CA_130 
REMARK   12  A    between atoms: CA_130  and  C_131 
REMARK   13  A    between atoms: CA_130  and  CB_133 
REMARK       I    between atoms: C_131  and  N_148 
REMARK   14  A    between atoms: CB_133  and  CG2_135 
REMARK   15  A    between atoms: CB_133  and  CG1_134 
REMARK   16  A    between atoms: CG1_134  and  CD1_136 
REMARK   17  A    between atoms: N_148  and  CA_149 
REMARK   18  A    between atoms: CA_149  and  C_150 
REMARK   19  A    between atoms: CA_149  and  CB_152 
REMARK   20  A    between atoms: CB_152  and  CG2_154 
REMARK   21  A    between atoms: CB_152  and  CG1_153 
ROOT
ATOM      1  C   VAL A   2     -11.881  31.267  -2.201  0.60  1.91     0.597 C 
ATOM      2  O   VAL A   2     -12.217  32.020  -1.299 -0.57  1.66    -0.568 OA
ATOM      3  N   HIS A   3     -12.379  30.020  -2.282 -0.35  1.82    -0.348 N 
ATOM      4  CA  HIS A   3     -13.037  29.540  -1.104 -0.14  1.91    -0.135 C 
ATOM      5  C   HIS A   3     -12.089  29.040  -0.049  0.73  1.91     0.734 C 
ATOM      6  O   HIS A   3     -12.395  29.142   1.137 -0.59  1.66    -0.589 OA
ATOM      7  CG  HIS A   3     -14.336  27.636  -2.411 -0.00  1.91    -0.001 A 
ATOM      8  CB  HIS A   3     -14.260  28.605  -1.274 -0.04  1.91    -0.041 C 
ATOM      9  HB2 HIS A   3     -14.371  28.068  -0.394  0.08  1.49     0.081 H 
ATOM     10  HB3 HIS A   3     -15.108  29.201  -1.310  0.08  1.49     0.081 H 
ATOM     11  H   HIS A   3     -12.250  29.537  -3.147  0.27  0.60     0.275 HD
ATOM     12  HA  HIS A   3     -13.584  30.304  -0.703  0.12  1.39     0.121 H 
ATOM     13  CD2 HIS A   3     -14.320  26.274  -2.393 -0.11  1.91    -0.114 A 
ATOM     14  HE2 HIS A   3     -14.633  24.837  -3.918  0.39  0.60     0.391 HD
ATOM     15  HD1 HIS A   3     -14.676  28.896  -4.078  0.39  0.60     0.387 HD
ATOM     16  HD2 HIS A   3     -14.142  25.707  -1.572  0.23  1.41     0.232 H 
ATOM     17  CE1 HIS A   3     -14.743  26.840  -4.414 -0.02  1.91    -0.017 A 
ATOM     18  ND1 HIS A   3     -14.601  27.993  -3.711 -0.15  1.82    -0.151 N 
ATOM     19  NE2 HIS A   3     -14.582  25.774  -3.655 -0.17  1.82    -0.172 N 
ATOM     20  HE1 HIS A   3     -14.950  26.821  -5.405  0.27  1.36     0.268 H 
ATOM     21  N   PHE A   4     -10.917  28.485  -0.430 -0.42  1.82    -0.416 N 
ATOM     22  CA  PHE A   4     -10.021  27.950   0.569 -0.00  1.91    -0.002 C 
ATOM     23  C   PHE A   4      -8.855  28.855   0.781  0.60  1.91     0.597 C 
ATOM     24  O   PHE A   4      -8.534  29.694  -0.054 -0.57  1.66    -0.568 OA
ATOM     25  CB  PHE A   4      -9.442  26.564   0.250 -0.03  1.91    -0.034 C 
ATOM     26  CG  PHE A   4     -10.466  25.544   0.606  0.01  1.91     0.012 A 
ATOM     27  CD1 PHE A   4     -10.640  25.188   1.923 -0.13  1.91    -0.126 A 
ATOM     28  CD2 PHE A   4     -11.236  24.939  -0.356 -0.13  1.91    -0.126 A 
ATOM     29  CE1 PHE A   4     -11.568  24.242   2.282 -0.17  1.91    -0.170 A 
ATOM     30  CE2 PHE A   4     -12.168  23.993  -0.007 -0.17  1.91    -0.170 A 
ATOM     31  CZ  PHE A   4     -12.342  23.649   1.314 -0.11  1.91    -0.107 A 
ATOM     32  HZ  PHE A   4     -13.032  22.968   1.572  0.13  1.46     0.130 H 
ATOM     33  HA  PHE A   4     -10.538  27.915   1.437  0.10  1.39     0.098 H 
ATOM     34  HE1 PHE A   4     -11.675  23.987   3.253  0.14  1.46     0.143 H 
ATOM     35  HE2 PHE A   4     -12.729  23.546  -0.731  0.14  1.46     0.143 H 
ATOM     36  H   PHE A   4     -10.747  28.486  -1.440  0.27  0.60     0.272 HD
ATOM     37  HD2 PHE A   4     -11.118  25.190  -1.320  0.13  1.46     0.133 H 
ATOM     38  HD1 PHE A   4     -10.084  25.624   2.634  0.13  1.46     0.133 H 
ATOM     39  HB3 PHE A   4      -8.664  26.434   0.808  0.03  1.49     0.029 H 
ATOM     40  HB2 PHE A   4      -9.279  26.525  -0.702  0.03  1.49     0.029 H 
ATOM     41  N   PHE A   5      -8.207  28.729   1.957 -0.42  1.82    -0.416 N 
ATOM     42  CA  PHE A   5      -7.174  29.663   2.284 -0.00  1.91    -0.002 C 
ATOM     43  C   PHE A   5      -6.035  29.632   1.295  0.60  1.91     0.597 C 
ATOM     44  O   PHE A   5      -5.982  30.453   0.380 -0.57  1.66    -0.568 OA
ATOM     45  CB  PHE A   5      -6.622  29.346   3.688 -0.03  1.91    -0.034 C 
ATOM     46  CG  PHE A   5      -5.839  30.487   4.240  0.01  1.91     0.012 A 
ATOM     47  CD1 PHE A   5      -6.493  31.593   4.731 -0.13  1.91    -0.126 A 
ATOM     48  CD2 PHE A   5      -4.465  30.442   4.304 -0.13  1.91    -0.126 A 
ATOM     49  CE1 PHE A   5      -5.790  32.652   5.254 -0.17  1.91    -0.170 A 
ATOM     50  CE2 PHE A   5      -3.758  31.499   4.827 -0.17  1.91    -0.170 A 
ATOM     51  CZ  PHE A   5      -4.419  32.606   5.304 -0.11  1.91    -0.107 A 
ATOM     52  HZ  PHE A   5      -3.905  33.377   5.687  0.13  1.46     0.130 H 
ATOM     53  HA  PHE A   5      -7.579  30.593   2.232  0.10  1.39     0.098 H 
ATOM     54  HE1 PHE A   5      -6.289  33.461   5.598  0.14  1.46     0.143 H 
ATOM     55  HE2 PHE A   5      -2.740  31.457   4.857  0.14  1.46     0.143 H 
ATOM     56  H   PHE A   5      -8.518  27.948   2.540  0.27  0.60     0.272 HD
ATOM     57  HD2 PHE A   5      -3.977  29.634   3.968  0.13  1.46     0.133 H 
ATOM     58  HD1 PHE A   5      -7.493  31.631   4.710  0.13  1.46     0.133 H 
ATOM     59  HB3 PHE A   5      -6.030  28.570   3.602  0.03  1.49     0.029 H 
ATOM     60  HB2 PHE A   5      -7.389  29.177   4.274  0.03  1.49     0.029 H 
ATOM     61  N   LYS A   6      -5.101  28.665   1.445 -0.35  1.82    -0.348 N 
ATOM     62  CA  LYS A   6      -3.945  28.575   0.586 -0.24  1.91    -0.240 C 
ATOM     63  C   LYS A   6      -4.171  27.822  -0.684  0.73  1.91     0.734 C 
ATOM     64  O   LYS A   6      -3.873  28.297  -1.780 -0.59  1.66    -0.589 OA
ATOM     65  CB  LYS A   6      -2.752  27.902   1.284 -0.01  1.91    -0.009 C 
ATOM     66  CG  LYS A   6      -1.478  27.902   0.440  0.02  1.91     0.019 C 
ATOM     67  CD  LYS A   6      -0.882  29.293   0.230 -0.05  1.91    -0.048 C 
ATOM     68  CE  LYS A   6       0.433  29.273  -0.546 -0.01  1.91    -0.014 C 
ATOM     69  NZ  LYS A   6       1.467  28.559   0.235 -0.39  1.82    -0.385 N 
ATOM     70  HA  LYS A   6      -3.637  29.528   0.356  0.14  1.39     0.143 H 
ATOM     71  HE2 LYS A   6       0.286  28.806  -1.413  0.11  1.10     0.114 H 
ATOM     72  HE3 LYS A   6       0.724  30.212  -0.708  0.11  1.10     0.114 H 
ATOM     73  HG2 LYS A   6      -0.789  27.322   0.893  0.01  1.49     0.010 H 
ATOM     74  HG3 LYS A   6      -1.685  27.501  -0.461  0.01  1.49     0.010 H 
ATOM     75  HZ1 LYS A   6       2.314  28.510  -0.296  0.34  0.60     0.340 HD
ATOM     76  HZ3 LYS A   6       1.640  29.049   1.091  0.34  0.60     0.340 HD
ATOM     77  HZ2 LYS A   6       1.151  27.632   0.442  0.34  0.60     0.340 HD
ATOM     78  HD3 LYS A   6      -0.715  29.709   1.124  0.06  1.49     0.062 H 
ATOM     79  HD2 LYS A   6      -1.540  29.850  -0.278  0.06  1.49     0.062 H 
ATOM     80  H   LYS A   6      -5.302  28.009   2.228  0.27  0.60     0.275 HD
ATOM     81  HB3 LYS A   6      -2.999  26.959   1.479  0.04  1.49     0.036 H 
ATOM     82  HB2 LYS A   6      -2.568  28.394   2.127  0.04  1.49     0.036 H 
ATOM     83  N   ASN A   7      -4.734  26.610  -0.539 -0.42  1.82    -0.416 N 
ATOM     84  CA  ASN A   7      -4.805  25.646  -1.596  0.01  1.91     0.014 C 
ATOM     85  C   ASN A   7      -6.097  25.761  -2.303  0.60  1.91     0.597 C 
ATOM     86  O   ASN A   7      -6.812  26.752  -2.223 -0.57  1.66    -0.568 OA
ATOM     87  CB  ASN A   7      -4.682  24.203  -1.086 -0.20  1.91    -0.204 C 
ATOM     88  CG  ASN A   7      -3.327  24.082  -0.408  0.71  1.91     0.713 C 
ATOM     89  HA  ASN A   7      -4.072  25.870  -2.254  0.10  1.39     0.105 H 
ATOM     90  H   ASN A   7      -5.115  26.446   0.428  0.27  0.60     0.272 HD
ATOM     91  HB3 ASN A   7      -4.709  23.600  -1.849  0.08  1.49     0.080 H 
ATOM     92  HB2 ASN A   7      -5.381  24.045  -0.428  0.08  1.49     0.080 H 
ATOM     93  OD1 ASN A   7      -3.207  24.281   0.799 -0.59  1.66    -0.593 OA
ATOM     94  ND2 ASN A   7      -2.274  23.753  -1.203 -0.92  1.82    -0.919 N 
ATOM     95 2HD2 ASN A   7      -1.378  23.657  -0.811  0.42  0.60     0.420 HD
ATOM     96 1HD2 ASN A   7      -2.433  23.614  -2.178  0.42  0.60     0.420 HD
ATOM     97  N   ILE A   8      -6.382  24.676  -3.040 -0.42  1.82    -0.416 N 
ATOM     98  H   ILE A   8      -5.666  23.901  -2.906  0.27  0.60     0.272 HD
ENDROOT
BRANCH   1  99
ATOM     99  CA  VAL A   2     -11.103  31.820  -3.334 -0.09  1.91    -0.087 C 
ATOM    100  HA  VAL A   2     -11.679  31.828  -4.146  0.10  1.39     0.097 H 
BRANCH  99 101
ATOM    101  CB  VAL A   2      -9.916  30.958  -3.652  0.30  1.91     0.298 C 
ATOM    102  HB  VAL A   2     -10.225  30.042  -3.845 -0.03  1.49    -0.030 H 
BRANCH 101 103
ATOM    103  CG1 VAL A   2      -9.301  31.485  -4.961 -0.32  1.91    -0.319 C 
ATOM    104 1HG1 VAL A   2      -9.915  32.162  -5.360  0.08  1.49     0.079 H 
ATOM    105 3HG1 VAL A   2      -9.179  30.723  -5.593  0.08  1.49     0.079 H 
ATOM    106 2HG1 VAL A   2      -8.419  31.904  -4.760  0.08  1.49     0.079 H 
ENDBRANCH 101 103
BRANCH 101 107
ATOM    107  CG2 VAL A   2      -8.942  30.957  -2.463 -0.32  1.91    -0.319 C 
ATOM    108 3HG2 VAL A   2      -9.467  30.906  -1.616  0.08  1.49     0.079 H 
ATOM    109 1HG2 VAL A   2      -8.407  31.798  -2.484  0.08  1.49     0.079 H 
ATOM    110 2HG2 VAL A   2      -8.340  30.166  -2.540  0.08  1.49     0.079 H 
ENDBRANCH 101 107
ENDBRANCH  99 101
BRANCH  99 111
ATOM    111  N   VAL A   2     -10.798  33.173  -2.980 -0.42  1.82    -0.416 N 
ATOM    112  H   VAL A   2      -9.901  33.511  -2.625  0.27  0.60     0.272 HD
ATOM    113  C   VAL A   1     -11.751  34.111  -3.113  0.62  1.91     0.616 C 
ATOM    114  O   VAL A   1     -12.870  33.858  -3.557 -0.57  1.66    -0.572 OA
BRANCH 113 115
ATOM    115  CA  VAL A   1     -11.390  35.493  -2.698 -0.01  1.91    -0.005 C 
ATOM    116  HA  VAL A   1     -10.604  35.456  -2.069  0.11  1.10     0.109 H 
BRANCH 115 117
ATOM    117  CB  VAL A   1     -12.589  36.112  -2.043  0.32  1.91     0.320 C 
ATOM    118  HB  VAL A   1     -13.320  36.185  -2.709 -0.02  1.49    -0.022 H 
BRANCH 117 119
ATOM    119  CG2 VAL A   1     -12.192  37.504  -1.525 -0.31  1.91    -0.313 C 
ATOM    120 1HG2 VAL A   1     -12.268  38.161  -2.270  0.07  1.49     0.073 H 
ATOM    121 2HG2 VAL A   1     -11.252  37.471  -1.195  0.07  1.49     0.073 H 
ATOM    122 3HG2 VAL A   1     -12.805  37.760  -0.782  0.07  1.49     0.073 H 
ENDBRANCH 117 119
BRANCH 117 123
ATOM    123  CG1 VAL A   1     -13.103  35.163  -0.949 -0.31  1.91    -0.313 C 
ATOM    124 3HG1 VAL A   1     -13.071  35.631  -0.069  0.07  1.49     0.073 H 
ATOM    125 2HG1 VAL A   1     -12.524  34.352  -0.922  0.07  1.49     0.073 H 
ATOM    126 1HG1 VAL A   1     -14.042  34.901  -1.159  0.07  1.49     0.073 H 
ENDBRANCH 117 123
ENDBRANCH 115 117
BRANCH 115 127
ATOM    127  N   VAL A   1     -10.972  36.297  -3.868  0.06  1.82     0.058 N 
ATOM    128  H   VAL A   1     -11.221  35.812  -4.706  0.23  0.60     0.227 HD
ATOM    129  H3  VAL A   1      -9.982  36.432  -3.837  0.23  0.60     0.227 HD
ATOM    130  H2  VAL A   1     -11.434  37.183  -3.840  0.23  0.60     0.227 HD
ENDBRANCH 115 127
ENDBRANCH 113 115
ENDBRANCH  99 111
ENDBRANCH   1  99
BRANCH  97 131
ATOM    131  CA  ILE A   8      -7.503  24.563  -3.900 -0.06  1.91    -0.060 C 
ATOM    132  HA  ILE A   8      -7.511  25.396  -4.477  0.09  1.39     0.087 H 
BRANCH 131 133
ATOM    133  C   ILE A   8      -8.762  24.555  -3.129  0.60  1.91     0.597 C 
ATOM    134  N   VAL A   9      -9.747  25.199  -3.768 -0.38  1.82    -0.382 N 
ATOM    135  H   VAL A   9      -9.408  25.651  -4.673  0.27  0.60     0.268 HD
ATOM    136  O   ILE A   8      -8.847  24.092  -1.988 -0.57  1.66    -0.568 OA
BRANCH 134 137
ATOM    137  CA  VAL A   9     -11.082  25.280  -3.312 -0.34  1.91    -0.344 C 
ATOM    138  HA  VAL A   9     -11.101  25.251  -2.331  0.14  1.39     0.144 H 
BRANCH 137 139
ATOM    139  C   VAL A   9     -11.685  23.977  -3.821  0.83  1.91     0.835 C 
ATOM    140  O   VAL A   9     -12.815  23.988  -4.375 -0.82  1.66    -0.817 OA
ATOM    141  OXT VAL A   9     -10.986  22.938  -3.675 -0.82  1.66    -0.817 OA
ENDBRANCH 137 139
BRANCH 137 142
ATOM    142  CB  VAL A   9     -11.781  26.429  -3.955  0.19  1.91     0.194 C 
ATOM    143  HB  VAL A   9     -12.714  26.469  -3.630  0.03  1.49     0.031 H 
BRANCH 142 144
ATOM    144  CG2 VAL A   9     -11.712  26.248  -5.482 -0.31  1.91    -0.306 C 
ATOM    145 1HG2 VAL A   9     -12.054  25.342  -5.716  0.08  1.49     0.084 H 
ATOM    146 2HG2 VAL A   9     -10.765  26.341  -5.776  0.08  1.49     0.084 H 
ATOM    147 3HG2 VAL A   9     -12.273  26.947  -5.916  0.08  1.49     0.084 H 
ENDBRANCH 142 144
BRANCH 142 148
ATOM    148  CG1 VAL A   9     -11.108  27.724  -3.463 -0.31  1.91    -0.306 C 
ATOM    149 1HG1 VAL A   9     -10.191  27.510  -3.137  0.08  1.49     0.084 H 
ATOM    150 3HG1 VAL A   9     -11.651  28.111  -2.722  0.08  1.49     0.084 H 
ATOM    151 2HG1 VAL A   9     -11.057  28.371  -4.220  0.08  1.49     0.084 H 
ENDBRANCH 142 148
ENDBRANCH 137 142
ENDBRANCH 134 137
ENDBRANCH 131 133
BRANCH 131 152
ATOM    152  CB  ILE A   8      -7.398  23.358  -4.779  0.13  1.91     0.130 C 
ATOM    153  HB  ILE A   8      -7.363  22.545  -4.221  0.02  1.49     0.019 H 
BRANCH 152 154
ATOM    154  CG2 ILE A   8      -8.624  23.318  -5.704 -0.32  1.91    -0.320 C 
ATOM    155 1HG2 ILE A   8      -9.444  23.262  -5.141  0.09  1.49     0.088 H 
ATOM    156 3HG2 ILE A   8      -8.635  24.150  -6.251  0.09  1.49     0.088 H 
ATOM    157 2HG2 ILE A   8      -8.551  22.517  -6.291  0.09  1.49     0.088 H 
ENDBRANCH 152 154
BRANCH 152 158
ATOM    158  CG1 ILE A   8      -6.055  23.445  -5.538 -0.04  1.91    -0.043 C 
ATOM    159 2HG1 ILE A   8      -6.155  24.118  -6.270  0.02  1.49     0.024 H 
ATOM    160 3HG1 ILE A   8      -5.361  23.775  -4.897  0.02  1.49     0.024 H 
BRANCH 158 161
ATOM    161  CD1 ILE A   8      -5.579  22.130  -6.137 -0.07  1.91    -0.066 C 
ATOM    162 3HD1 ILE A   8      -6.261  21.801  -6.787  0.02  1.49     0.019 H 
ATOM    163 2HD1 ILE A   8      -4.711  22.279  -6.605  0.02  1.49     0.019 H 
ATOM    164 1HD1 ILE A   8      -5.459  21.462  -5.406  0.02  1.49     0.019 H 
ENDBRANCH 158 161
ENDBRANCH 152 158
ENDBRANCH 131 152
ENDBRANCH  97 131
TORSDOF 44
