REMARK  21 active torsions:
REMARK  status: ('A' for Active; 'I' for Inactive)
REMARK    1  A    between atoms: N_1  and  CA_2 
REMARK    2  A    between atoms: CA_2  and  C_3 
REMARK    3  A    between atoms: CA_2  and  CB_5 
REMARK       I    between atoms: C_3  and  N_19 
REMARK    4  A    between atoms: CB_5  and  CG2_7 
REMARK    5  A    between atoms: CB_5  and  CG1_6 
REMARK    6  A    between atoms: N_19  and  CA_20 
REMARK    7  A    between atoms: CA_20  and  CB_23 
REMARK    8  A    between atoms: CA_20  and  C_21 
REMARK       I    between atoms: C_21  and  N_35 
REMARK    9  A    between atoms: CB_23  and  CG2_25 
REMARK   10  A    between atoms: CB_23  and  CG1_24 
REMARK       I    between atoms: N_35  and  CA_36 
REMARK       I    between atoms: CA_36  and  C_37 
REMARK       I    between atoms: CA_36  and  CB_40 
REMARK       I    between atoms: C_37  and  N_53 
REMARK       I    between atoms: CG_39  and  CB_40 
REMARK       I    between atoms: N_53  and  CA_54 
REMARK       I    between atoms: CA_54  and  CB_57 
REMARK       I    between atoms: CA_54  and  C_55 
REMARK       I    between atoms: C_55  and  N_73 
REMARK       I    between atoms: CB_57  and  CG_58 
REMARK       I    between atoms: N_73  and  CA_74 
REMARK       I    between atoms: CA_74  and  C_75 
REMARK       I    between atoms: CA_74  and  CB_77 
REMARK       I    between atoms: C_75  and  N_93 
REMARK       I    between atoms: CB_77  and  CG_78 
REMARK       I    between atoms: N_93  and  CA_94 
REMARK       I    between atoms: CA_94  and  C_95 
REMARK       I    between atoms: CA_94  and  CB_97 
REMARK       I    between atoms: C_95  and  N_115 
REMARK       I    between atoms: CB_97  and  CG_98 
REMARK       I    between atoms: CG_98  and  CD_99 
REMARK       I    between atoms: CD_99  and  CE_100 
REMARK       I    between atoms: CE_100  and  NZ_101 
REMARK       I    between atoms: N_115  and  CA_116 
REMARK       I    between atoms: CA_116  and  C_117 
REMARK       I    between atoms: CA_116  and  CB_119 
REMARK       I    between atoms: C_117  and  N_129 
REMARK       I    between atoms: CB_119  and  CG_120 
REMARK       I    between atoms: CG_120  and  ND2_126 
REMARK   11  A    between atoms: N_129  and  CA_130 
REMARK   12  A    between atoms: CA_130  and  CB_133 
REMARK   13  A    between atoms: CA_130  and  C_131 
REMARK       I    between atoms: C_131  and  N_148 
REMARK   14  A    between atoms: CB_133  and  CG2_135 
REMARK   15  A    between atoms: CB_133  and  CG1_134 
REMARK   16  A    between atoms: CG1_134  and  CD1_136 
REMARK   17  A    between atoms: N_148  and  CA_149 
REMARK   18  A    between atoms: CA_149  and  CB_152 
REMARK   19  A    between atoms: CA_149  and  C_150 
REMARK   20  A    between atoms: CB_152  and  CG2_154 
REMARK   21  A    between atoms: CB_152  and  CG1_153 
ROOT
ATOM      1  C   VAL A   2      -1.020  26.758   1.483  0.60  1.91     0.597 C 
ATOM      2  O   VAL A   2      -1.141  25.643   0.979 -0.57  1.66    -0.568 OA
ATOM      3  N   HIS A   3      -2.077  27.491   1.865 -0.35  1.82    -0.348 N 
ATOM      4  CA  HIS A   3      -3.423  27.059   1.661 -0.14  1.91    -0.135 C 
ATOM      5  C   HIS A   3      -3.759  27.302   0.225  0.73  1.91     0.734 C 
ATOM      6  O   HIS A   3      -4.078  28.422  -0.171 -0.59  1.66    -0.589 OA
ATOM      7  CG  HIS A   3      -3.944  29.284   2.692 -0.00  1.91    -0.001 A 
ATOM      8  CB  HIS A   3      -4.398  27.860   2.535 -0.04  1.91    -0.041 C 
ATOM      9  HB2 HIS A   3      -5.295  27.860   2.107  0.08  1.49     0.081 H 
ATOM     10  HB3 HIS A   3      -4.445  27.443   3.436  0.08  1.49     0.081 H 
ATOM     11  H   HIS A   3      -1.813  28.397   2.320  0.27  0.60     0.275 HD
ATOM     12  HA  HIS A   3      -3.482  26.078   1.842  0.12  1.39     0.121 H 
ATOM     13  CD2 HIS A   3      -3.291  29.873   3.738 -0.11  1.91    -0.114 A 
ATOM     14  HE2 HIS A   3      -2.580  31.847   4.033  0.39  0.60     0.391 HD
ATOM     15  HD1 HIS A   3      -4.522  30.193   0.869  0.39  0.60     0.387 HD
ATOM     16  HD2 HIS A   3      -3.033  29.401   4.597  0.23  1.41     0.232 H 
ATOM     17  CE1 HIS A   3      -3.530  31.396   2.253 -0.02  1.91    -0.017 A 
ATOM     18  ND1 HIS A   3      -4.094  30.269   1.745 -0.15  1.82    -0.151 N 
ATOM     19  NE2 HIS A   3      -3.031  31.202   3.460 -0.17  1.82    -0.172 N 
ATOM     20  HE1 HIS A   3      -3.504  32.274   1.749  0.27  1.36     0.268 H 
ATOM     21  N   PHE A   4      -3.631  26.248  -0.603 -0.42  1.82    -0.416 N 
ATOM     22  CA  PHE A   4      -3.880  26.342  -2.009 -0.00  1.91    -0.002 C 
ATOM     23  C   PHE A   4      -5.354  26.463  -2.300  0.60  1.91     0.597 C 
ATOM     24  O   PHE A   4      -5.764  27.367  -3.026 -0.57  1.66    -0.568 OA
ATOM     25  CB  PHE A   4      -3.335  25.106  -2.752 -0.03  1.91    -0.034 C 
ATOM     26  CG  PHE A   4      -3.094  25.463  -4.182  0.01  1.91     0.012 A 
ATOM     27  CD1 PHE A   4      -4.101  25.411  -5.117 -0.13  1.91    -0.126 A 
ATOM     28  CD2 PHE A   4      -1.834  25.845  -4.585 -0.13  1.91    -0.126 A 
ATOM     29  CE1 PHE A   4      -3.857  25.740  -6.430 -0.17  1.91    -0.170 A 
ATOM     30  CE2 PHE A   4      -1.586  26.175  -5.896 -0.17  1.91    -0.170 A 
ATOM     31  CZ  PHE A   4      -2.599  26.122  -6.821 -0.11  1.91    -0.107 A 
ATOM     32  HZ  PHE A   4      -2.423  26.362  -7.779  0.13  1.46     0.130 H 
ATOM     33  HA  PHE A   4      -3.447  27.196  -2.337  0.10  1.39     0.098 H 
ATOM     34  HE1 PHE A   4      -4.613  25.696  -7.103  0.14  1.46     0.143 H 
ATOM     35  HE2 PHE A   4      -0.648  26.457  -6.175  0.14  1.46     0.143 H 
ATOM     36  H   PHE A   4      -3.335  25.371  -0.115  0.27  0.60     0.272 HD
ATOM     37  HD2 PHE A   4      -1.089  25.883  -3.913  0.13  1.46     0.133 H 
ATOM     38  HD1 PHE A   4      -5.022  25.133  -4.844  0.13  1.46     0.133 H 
ATOM     39  HB3 PHE A   4      -4.015  24.416  -2.712  0.03  1.49     0.029 H 
ATOM     40  HB2 PHE A   4      -2.490  24.867  -2.343  0.03  1.49     0.029 H 
ATOM     41  N   PHE A   5      -6.204  25.576  -1.724 -0.42  1.82    -0.416 N 
ATOM     42  CA  PHE A   5      -7.604  25.581  -2.092 -0.00  1.91    -0.002 C 
ATOM     43  C   PHE A   5      -8.506  25.773  -0.911  0.60  1.91     0.597 C 
ATOM     44  O   PHE A   5      -8.541  24.947  -0.001 -0.57  1.66    -0.568 OA
ATOM     45  CB  PHE A   5      -8.112  24.241  -2.653 -0.03  1.91    -0.034 C 
ATOM     46  CG  PHE A   5      -7.559  23.979  -4.004  0.01  1.91     0.012 A 
ATOM     47  CD1 PHE A   5      -6.363  23.319  -4.162 -0.13  1.91    -0.126 A 
ATOM     48  CD2 PHE A   5      -8.260  24.382  -5.115 -0.13  1.91    -0.126 A 
ATOM     49  CE1 PHE A   5      -5.869  23.081  -5.422 -0.17  1.91    -0.170 A 
ATOM     50  CE2 PHE A   5      -7.769  24.147  -6.375 -0.17  1.91    -0.170 A 
ATOM     51  CZ  PHE A   5      -6.573  23.489  -6.529 -0.11  1.91    -0.107 A 
ATOM     52  HZ  PHE A   5      -6.211  23.304  -7.447  0.13  1.46     0.130 H 
ATOM     53  HA  PHE A   5      -7.742  26.377  -2.707  0.10  1.39     0.098 H 
ATOM     54  HE1 PHE A   5      -4.981  22.604  -5.528  0.14  1.46     0.143 H 
ATOM     55  HE2 PHE A   5      -8.291  24.462  -7.188  0.14  1.46     0.143 H 
ATOM     56  H   PHE A   5      -5.772  24.945  -1.045  0.27  0.60     0.272 HD
ATOM     57  HD2 PHE A   5      -9.141  24.852  -5.004  0.13  1.46     0.133 H 
ATOM     58  HD1 PHE A   5      -5.852  23.010  -3.365  0.13  1.46     0.133 H 
ATOM     59  HB3 PHE A   5      -9.088  24.301  -2.716  0.03  1.49     0.029 H 
ATOM     60  HB2 PHE A   5      -7.811  23.535  -2.044  0.03  1.49     0.029 H 
ATOM     61  N   LYS A   6      -9.199  26.923  -0.842 -0.35  1.82    -0.348 N 
ATOM     62  CA  LYS A   6     -10.267  27.082   0.103 -0.24  1.91    -0.240 C 
ATOM     63  C   LYS A   6     -11.585  26.631  -0.462  0.73  1.91     0.734 C 
ATOM     64  O   LYS A   6     -12.336  25.902   0.183 -0.59  1.66    -0.589 OA
ATOM     65  CB  LYS A   6     -10.372  28.532   0.588 -0.01  1.91    -0.009 C 
ATOM     66  CG  LYS A   6      -9.216  28.865   1.529  0.02  1.91     0.019 C 
ATOM     67  CD  LYS A   6      -8.911  30.355   1.632 -0.05  1.91    -0.048 C 
ATOM     68  CE  LYS A   6      -8.057  30.850   0.463 -0.01  1.91    -0.014 C 
ATOM     69  NZ  LYS A   6      -6.769  30.117   0.438 -0.39  1.82    -0.385 N 
ATOM     70  HA  LYS A   6     -10.062  26.531   0.932  0.14  1.39     0.143 H 
ATOM     71  HE2 LYS A   6      -8.551  30.687  -0.385  0.11  1.10     0.114 H 
ATOM     72  HE3 LYS A   6      -7.886  31.823   0.582  0.11  1.10     0.114 H 
ATOM     73  HG2 LYS A   6      -9.438  28.517   2.451  0.01  1.49     0.010 H 
ATOM     74  HG3 LYS A   6      -8.387  28.387   1.207  0.01  1.49     0.010 H 
ATOM     75  HZ1 LYS A   6      -6.186  30.490  -0.284  0.34  0.60     0.340 HD
ATOM     76  HZ3 LYS A   6      -6.310  30.217   1.321  0.34  0.60     0.340 HD
ATOM     77  HZ2 LYS A   6      -6.939  29.147   0.260  0.34  0.60     0.340 HD
ATOM     78  HD3 LYS A   6      -8.414  30.526   2.478  0.06  1.49     0.062 H 
ATOM     79  HD2 LYS A   6      -9.769  30.861   1.630  0.06  1.49     0.062 H 
ATOM     80  H   LYS A   6      -8.891  27.647  -1.514  0.27  0.60     0.275 HD
ATOM     81  HB3 LYS A   6     -11.216  28.635   1.081  0.04  1.49     0.036 H 
ATOM     82  HB2 LYS A   6     -10.320  29.126  -0.192  0.04  1.49     0.036 H 
ATOM     83  N   ASN A   7     -11.866  27.004  -1.731 -0.42  1.82    -0.416 N 
ATOM     84  CA  ASN A   7     -13.179  26.798  -2.282  0.01  1.91     0.014 C 
ATOM     85  C   ASN A   7     -14.177  27.419  -1.359  0.60  1.91     0.597 C 
ATOM     86  O   ASN A   7     -15.072  26.741  -0.852 -0.57  1.66    -0.568 OA
ATOM     87  CB  ASN A   7     -13.579  25.325  -2.479 -0.20  1.91    -0.204 C 
ATOM     88  CG  ASN A   7     -12.895  24.793  -3.729  0.71  1.91     0.713 C 
ATOM     89  HA  ASN A   7     -13.221  27.295  -3.150  0.10  1.39     0.105 H 
ATOM     90  H   ASN A   7     -11.073  27.431  -2.233  0.27  0.60     0.272 HD
ATOM     91  HB3 ASN A   7     -14.549  25.281  -2.604  0.08  1.49     0.080 H 
ATOM     92  HB2 ASN A   7     -13.269  24.812  -1.705  0.08  1.49     0.080 H 
ATOM     93  OD1 ASN A   7     -11.904  25.347  -4.201 -0.59  1.66    -0.593 OA
ATOM     94  ND2 ASN A   7     -13.460  23.693  -4.295 -0.92  1.82    -0.919 N 
ATOM     95 2HD2 ASN A   7     -13.053  23.303  -5.106  0.42  0.60     0.420 HD
ATOM     96 1HD2 ASN A   7     -14.275  23.301  -3.882  0.42  0.60     0.420 HD
ATOM     97  N   ILE A   8     -14.041  28.736  -1.090 -0.42  1.82    -0.416 N 
ATOM     98  H   ILE A   8     -13.257  29.196  -1.544  0.27  0.60     0.272 HD
ENDROOT
BRANCH  97  99
ATOM     99  CA  ILE A   8     -14.993  29.350  -0.209 -0.06  1.91    -0.060 C 
ATOM    100  HA  ILE A   8     -15.816  28.768  -0.228  0.09  1.39     0.087 H 
BRANCH  99 101
ATOM    101  CB  ILE A   8     -14.509  29.537   1.198  0.13  1.91     0.130 C 
ATOM    102  HB  ILE A   8     -15.249  29.927   1.749  0.02  1.49     0.019 H 
BRANCH 101 103
ATOM    103  CG2 ILE A   8     -14.177  28.146   1.758 -0.32  1.91    -0.320 C 
ATOM    104 2HG2 ILE A   8     -13.910  28.244   2.712  0.09  1.49     0.088 H 
ATOM    105 1HG2 ILE A   8     -14.987  27.572   1.682  0.09  1.49     0.088 H 
ATOM    106 3HG2 ILE A   8     -13.428  27.761   1.226  0.09  1.49     0.088 H 
ENDBRANCH 101 103
BRANCH 101 107
ATOM    107  CG1 ILE A   8     -13.331  30.520   1.260 -0.04  1.91    -0.043 C 
ATOM    108 3HG1 ILE A   8     -13.567  31.326   0.729  0.02  1.49     0.024 H 
ATOM    109 2HG1 ILE A   8     -12.532  30.083   0.865  0.02  1.49     0.024 H 
BRANCH 107 110
ATOM    110  CD1 ILE A   8     -12.997  30.960   2.686 -0.07  1.91    -0.066 C 
ATOM    111 1HD1 ILE A   8     -13.794  31.409   3.081  0.02  1.49     0.019 H 
ATOM    112 2HD1 ILE A   8     -12.229  31.593   2.657  0.02  1.49     0.019 H 
ATOM    113 3HD1 ILE A   8     -12.757  30.157   3.224  0.02  1.49     0.019 H 
ENDBRANCH 107 110
ENDBRANCH 101 107
ENDBRANCH  99 101
BRANCH  99 114
ATOM    114  C   ILE A   8     -15.390  30.688  -0.728  0.60  1.91     0.597 C 
ATOM    115  N   VAL A   9     -16.381  31.307  -0.061 -0.38  1.82    -0.382 N 
ATOM    116  H   VAL A   9     -16.785  30.748   0.712  0.27  0.60     0.268 HD
ATOM    117  O   ILE A   8     -14.882  31.162  -1.741 -0.57  1.66    -0.568 OA
BRANCH 115 118
ATOM    118  CA  VAL A   9     -16.804  32.624  -0.427 -0.34  1.91    -0.344 C 
ATOM    119  HA  VAL A   9     -16.719  32.733  -1.410  0.14  1.39     0.144 H 
BRANCH 118 120
ATOM    120  CB  VAL A   9     -18.177  32.963   0.075  0.19  1.91     0.194 C 
ATOM    121  HB  VAL A   9     -18.821  32.295  -0.269  0.03  1.49     0.031 H 
BRANCH 120 122
ATOM    122  CG2 VAL A   9     -18.545  34.378  -0.408 -0.31  1.91    -0.306 C 
ATOM    123 3HG2 VAL A   9     -18.001  34.596  -1.214  0.08  1.49     0.084 H 
ATOM    124 2HG2 VAL A   9     -19.515  34.400  -0.635  0.08  1.49     0.084 H 
ATOM    125 1HG2 VAL A   9     -18.350  35.029   0.321  0.08  1.49     0.084 H 
ENDBRANCH 120 122
BRANCH 120 126
ATOM    126  CG1 VAL A   9     -18.183  32.810   1.606 -0.31  1.91    -0.306 C 
ATOM    127 2HG1 VAL A   9     -17.765  31.938   1.848  0.08  1.49     0.084 H 
ATOM    128 1HG1 VAL A   9     -19.125  32.836   1.932  0.08  1.49     0.084 H 
ATOM    129 3HG1 VAL A   9     -17.663  33.559   2.010  0.08  1.49     0.084 H 
ENDBRANCH 120 126
ENDBRANCH 118 120
BRANCH 118 130
ATOM    130  C   VAL A   9     -15.827  33.590   0.232  0.83  1.91     0.835 C 
ATOM    131  O   VAL A   9     -15.850  34.796  -0.133 -0.82  1.66    -0.817 OA
ATOM    132  OXT VAL A   9     -15.047  33.135   1.111 -0.82  1.66    -0.817 OA
ENDBRANCH 118 130
ENDBRANCH 115 118
ENDBRANCH  99 114
ENDBRANCH  97  99
BRANCH   1 133
ATOM    133  CA  VAL A   2       0.338  27.334   1.723 -0.09  1.91    -0.087 C 
ATOM    134  HA  VAL A   2       0.457  27.454   2.695  0.10  1.39     0.097 H 
BRANCH 133 135
ATOM    135  N   VAL A   2       1.213  26.314   1.268 -0.42  1.82    -0.416 N 
ATOM    136  H   VAL A   2       0.954  25.577   0.573  0.27  0.60     0.272 HD
ATOM    137  C   VAL A   1       2.471  26.217   1.708  0.62  1.91     0.616 C 
ATOM    138  O   VAL A   1       2.875  26.877   2.657 -0.57  1.66    -0.572 OA
BRANCH 137 139
ATOM    139  CA  VAL A   1       3.344  25.238   1.004 -0.01  1.91    -0.005 C 
ATOM    140  HA  VAL A   1       3.665  24.553   1.653  0.11  1.10     0.109 H 
BRANCH 139 141
ATOM    141  CB  VAL A   1       4.431  26.000   0.293  0.32  1.91     0.320 C 
ATOM    142  HB  VAL A   1       4.011  26.668  -0.313 -0.02  1.49    -0.022 H 
BRANCH 141 143
ATOM    143  CG2 VAL A   1       5.264  25.002  -0.523 -0.31  1.91    -0.313 C 
ATOM    144 1HG2 VAL A   1       5.814  25.503  -1.186  0.07  1.49     0.073 H 
ATOM    145 2HG2 VAL A   1       4.649  24.376  -0.996  0.07  1.49     0.073 H 
ATOM    146 3HG2 VAL A   1       5.858  24.492   0.095  0.07  1.49     0.073 H 
ENDBRANCH 141 143
BRANCH 141 147
ATOM    147  CG1 VAL A   1       5.259  26.805   1.307 -0.31  1.91    -0.313 C 
ATOM    148 1HG1 VAL A   1       6.082  26.291   1.537  0.07  1.49     0.073 H 
ATOM    149 2HG1 VAL A   1       5.509  27.681   0.902  0.07  1.49     0.073 H 
ATOM    150 3HG1 VAL A   1       4.713  26.955   2.128  0.07  1.49     0.073 H 
ENDBRANCH 141 147
ENDBRANCH 139 141
BRANCH 139 151
ATOM    151  N   VAL A   1       2.515  24.528  -0.006  0.06  1.82     0.058 N 
ATOM    152  H   VAL A   1       2.082  25.201  -0.602  0.23  0.60     0.227 HD
ATOM    153  H2  VAL A   1       3.102  23.925  -0.543  0.23  0.60     0.227 HD
ATOM    154  H3  VAL A   1       1.817  23.992   0.465  0.23  0.60     0.227 HD
ENDBRANCH 139 151
ENDBRANCH 137 139
ENDBRANCH 133 135
BRANCH 133 155
ATOM    155  CB  VAL A   2       0.495  28.591   0.895  0.30  1.91     0.298 C 
ATOM    156  HB  VAL A   2       0.229  28.388  -0.049 -0.03  1.49    -0.030 H 
BRANCH 155 157
ATOM    157  CG2 VAL A   2       1.978  29.001   0.917 -0.32  1.91    -0.319 C 
ATOM    158 3HG2 VAL A   2       2.036  29.991   1.021  0.08  1.49     0.079 H 
ATOM    159 1HG2 VAL A   2       2.402  28.721   0.059  0.08  1.49     0.079 H 
ATOM    160 2HG2 VAL A   2       2.426  28.548   1.684  0.08  1.49     0.079 H 
ENDBRANCH 155 157
BRANCH 155 161
ATOM    161  CG1 VAL A   2      -0.448  29.713   1.371 -0.32  1.91    -0.319 C 
ATOM    162 2HG1 VAL A   2      -0.921  30.096   0.582  0.08  1.49     0.079 H 
ATOM    163 3HG1 VAL A   2      -1.110  29.331   2.011  0.08  1.49     0.079 H 
ATOM    164 1HG1 VAL A   2       0.091  30.421   1.821  0.08  1.49     0.079 H 
ENDBRANCH 155 161
ENDBRANCH 133 155
ENDBRANCH   1 133
TORSDOF 44
