MODEL 1
REMARK VINA RESULT:     -12.3      0.000      0.000
REMARK  11 active torsions:
REMARK  status: ('A' for Active; 'I' for Inactive)
REMARK    1  A    between atoms: N_1  and  CA_2 
REMARK    2  A    between atoms: CA_2  and  CB_5 
REMARK    3  A    between atoms: CA_2  and  C_3 
REMARK       I    between atoms: C_3  and  N_17 
REMARK    4  A    between atoms: CB_5  and  CG_6 
REMARK       I    between atoms: CG_6  and  ND2_14 
REMARK    5  A    between atoms: CA_18  and  C_19 
REMARK       I    between atoms: C_19  and  N_31 
REMARK       I    between atoms: N_31  and  CA_32 
REMARK       I    between atoms: CA_32  and  C_33 
REMARK       I    between atoms: CA_32  and  CB_35 
REMARK       I    between atoms: C_33  and  N_47 
REMARK       I    between atoms: CB_35  and  CG2_37 
REMARK       I    between atoms: CB_35  and  CG1_36 
REMARK       I    between atoms: N_47  and  CA_48 
REMARK       I    between atoms: CA_48  and  C_49 
REMARK       I    between atoms: CA_48  and  CB_51 
REMARK       I    between atoms: C_49  and  N_63 
REMARK       I    between atoms: CB_51  and  CG2_53 
REMARK       I    between atoms: CB_51  and  CG1_52 
REMARK       I    between atoms: N_63  and  CA_64 
REMARK       I    between atoms: CA_64  and  C_65 
REMARK       I    between atoms: CA_64  and  CB_68 
REMARK       I    between atoms: C_65  and  N_81 
REMARK       I    between atoms: CG_67  and  CB_68 
REMARK       I    between atoms: N_81  and  CA_82 
REMARK       I    between atoms: CA_82  and  CB_85 
REMARK       I    between atoms: CA_82  and  C_83 
REMARK       I    between atoms: C_83  and  N_101 
REMARK       I    between atoms: CB_85  and  CG_86 
REMARK       I    between atoms: N_101  and  CA_102 
REMARK       I    between atoms: CA_102  and  C_103 
REMARK       I    between atoms: CA_102  and  CB_105 
REMARK       I    between atoms: C_103  and  N_121 
REMARK       I    between atoms: CB_105  and  CG_106 
REMARK       I    between atoms: N_121  and  CA_122 
REMARK       I    between atoms: CA_122  and  C_123 
REMARK       I    between atoms: CA_122  and  CB_125 
REMARK       I    between atoms: C_123  and  N_143 
REMARK       I    between atoms: CB_125  and  CG_126 
REMARK       I    between atoms: CG_126  and  CD_127 
REMARK       I    between atoms: CD_127  and  CE_128 
REMARK       I    between atoms: CE_128  and  NZ_129 
REMARK       I    between atoms: N_143  and  CA_144 
REMARK       I    between atoms: CA_144  and  CB_147 
REMARK       I    between atoms: CA_144  and  C_145 
REMARK       I    between atoms: C_145  and  N_157 
REMARK       I    between atoms: CB_147  and  CG_148 
REMARK       I    between atoms: CG_148  and  ND2_154 
REMARK       I    between atoms: N_157  and  CA_158 
REMARK       I    between atoms: CA_158  and  C_159 
REMARK       I    between atoms: CA_158  and  CB_161 
REMARK       I    between atoms: C_159  and  N_176 
REMARK       I    between atoms: CB_161  and  CG2_163 
REMARK       I    between atoms: CB_161  and  CG1_162 
REMARK       I    between atoms: CG1_162  and  CD1_164 
REMARK       I    between atoms: N_176  and  CA_177 
REMARK       I    between atoms: CA_177  and  C_178 
REMARK       I    between atoms: CA_177  and  CB_180 
REMARK       I    between atoms: C_178  and  N_192 
REMARK       I    between atoms: CB_180  and  CG2_182 
REMARK       I    between atoms: CB_180  and  CG1_181 
REMARK    6  A    between atoms: N_192  and  CA_193 
REMARK    7  A    between atoms: CA_193  and  C_194 
REMARK    8  A    between atoms: CA_193  and  CB_196 
REMARK       I    between atoms: C_194  and  N_206 
REMARK    9  A    between atoms: CB_196  and  OG1_197 
REMARK   10  A    between atoms: CB_196  and  CG2_198 
REMARK   11  A    between atoms: CA_207  and  C_208 
ROOT
ATOM      1  C   PRO A   2       7.131  24.113  -3.341  0.59  1.91     0.590 C 
ATOM      2  O   PRO A   2       7.166  24.264  -4.562 -0.57  1.66    -0.575 OA
ATOM      3  N   VAL A   3       6.143  23.466  -2.694 -0.42  1.82    -0.416 N 
ATOM      4  CA  VAL A   3       5.063  22.872  -3.417 -0.09  1.91    -0.087 C 
ATOM      5  C   VAL A   3       3.833  23.676  -3.172  0.60  1.91     0.597 C 
ATOM      6  O   VAL A   3       3.614  24.210  -2.087 -0.57  1.66    -0.568 OA
ATOM      7  CB  VAL A   3       4.766  21.456  -3.015  0.30  1.91     0.298 C 
ATOM      8  CG1 VAL A   3       5.969  20.581  -3.398 -0.32  1.91    -0.319 C 
ATOM      9  CG2 VAL A   3       4.427  21.425  -1.515 -0.32  1.91    -0.319 C 
ATOM     10  HA  VAL A   3       5.276  22.907  -4.397  0.10  1.39     0.097 H 
ATOM     11 1HG1 VAL A   3       6.807  21.017  -3.075  0.08  1.49     0.079 H 
ATOM     12 1HG2 VAL A   3       4.387  20.475  -1.214  0.08  1.49     0.079 H 
ATOM     13  HB  VAL A   3       4.003  21.123  -3.550 -0.03  1.49    -0.030 H 
ATOM     14 2HG1 VAL A   3       5.869  19.684  -2.973  0.08  1.49     0.079 H 
ATOM     15 3HG1 VAL A   3       6.000  20.483  -4.390  0.08  1.49     0.079 H 
ATOM     16  H   VAL A   3       6.250  23.450  -1.665  0.27  0.60     0.272 HD
ATOM     17 3HG2 VAL A   3       5.138  21.914  -1.014  0.08  1.49     0.079 H 
ATOM     18 2HG2 VAL A   3       3.545  21.867  -1.375  0.08  1.49     0.079 H 
ATOM     19  N   VAL A   4       3.017  23.797  -4.230 -0.42  1.82    -0.416 N 
ATOM     20  CA  VAL A   4       1.786  24.521  -4.216 -0.09  1.91    -0.087 C 
ATOM     21  C   VAL A   4       0.716  23.603  -3.719  0.60  1.91     0.597 C 
ATOM     22  O   VAL A   4       0.788  22.390  -3.908 -0.57  1.66    -0.568 OA
ATOM     23  CB  VAL A   4       1.418  24.968  -5.597  0.30  1.91     0.298 C 
ATOM     24  CG1 VAL A   4       1.423  23.732  -6.511 -0.32  1.91    -0.319 C 
ATOM     25  CG2 VAL A   4       0.058  25.669  -5.549 -0.32  1.91    -0.319 C 
ATOM     26  HA  VAL A   4       1.870  25.284  -3.573  0.10  1.39     0.097 H 
ATOM     27 1HG1 VAL A   4       0.594  23.203  -6.348  0.08  1.49     0.079 H 
ATOM     28 1HG2 VAL A   4      -0.070  26.193  -6.389  0.08  1.49     0.079 H 
ATOM     29  HB  VAL A   4       2.124  25.566  -5.943 -0.03  1.49    -0.030 H 
ATOM     30 2HG1 VAL A   4       1.453  24.030  -7.462  0.08  1.49     0.079 H 
ATOM     31 3HG1 VAL A   4       2.226  23.178  -6.305  0.08  1.49     0.079 H 
ATOM     32  H   VAL A   4       3.385  23.292  -5.087  0.27  0.60     0.272 HD
ATOM     33 3HG2 VAL A   4      -0.660  24.981  -5.465  0.08  1.49     0.079 H 
ATOM     34 2HG2 VAL A   4       0.035  26.282  -4.760  0.08  1.49     0.079 H 
ATOM     35  N   HIS A   5      -0.302  24.167  -3.039 -0.35  1.82    -0.348 N 
ATOM     36  CA  HIS A   5      -1.386  23.369  -2.541 -0.14  1.91    -0.135 C 
ATOM     37  C   HIS A   5      -2.647  23.938  -3.114  0.73  1.91     0.734 C 
ATOM     38  O   HIS A   5      -2.694  25.109  -3.485 -0.59  1.66    -0.589 OA
ATOM     39  CG  HIS A   5      -1.717  24.745  -0.428 -0.00  1.91    -0.001 A 
ATOM     40  CB  HIS A   5      -1.511  23.377  -1.006 -0.04  1.91    -0.041 C 
ATOM     41  HB2 HIS A   5      -2.290  22.800  -0.743  0.08  1.49     0.081 H 
ATOM     42  HB3 HIS A   5      -0.673  22.989  -0.612  0.08  1.49     0.081 H 
ATOM     43  H   HIS A   5      -0.218  25.191  -2.923  0.27  0.60     0.275 HD
ATOM     44  HA  HIS A   5      -1.277  22.434  -2.871  0.12  1.39     0.121 H 
ATOM     45  CD2 HIS A   5      -0.826  25.597   0.149 -0.11  1.91    -0.114 A 
ATOM     46  HE2 HIS A   5      -1.049  27.530   0.987  0.39  0.60     0.391 HD
ATOM     47  HD1 HIS A   5      -3.791  25.065  -0.718  0.39  0.60     0.387 HD
ATOM     48  HD2 HIS A   5       0.165  25.407   0.269  0.23  1.41     0.232 H 
ATOM     49  CE1 HIS A   5      -2.718  26.594   0.205 -0.02  1.91    -0.017 A 
ATOM     50  ND1 HIS A   5      -2.932  25.393  -0.388 -0.15  1.82    -0.151 N 
ATOM     51  NE2 HIS A   5      -1.454  26.763   0.550 -0.17  1.82    -0.172 N 
ATOM     52  HE1 HIS A   5      -3.455  27.273   0.358  0.27  1.36     0.268 H 
ATOM     53  N   PHE A   6      -3.709  23.110  -3.212 -0.42  1.82    -0.416 N 
ATOM     54  CA  PHE A   6      -4.937  23.577  -3.791 -0.00  1.91    -0.002 C 
ATOM     55  C   PHE A   6      -5.765  24.071  -2.652  0.60  1.91     0.597 C 
ATOM     56  O   PHE A   6      -5.999  23.346  -1.686 -0.57  1.66    -0.568 OA
ATOM     57  CB  PHE A   6      -5.725  22.464  -4.509 -0.03  1.91    -0.034 C 
ATOM     58  CG  PHE A   6      -6.727  23.095  -5.419  0.01  1.91     0.012 A 
ATOM     59  CD1 PHE A   6      -6.331  23.545  -6.659 -0.13  1.91    -0.126 A 
ATOM     60  CD2 PHE A   6      -8.048  23.229  -5.057 -0.13  1.91    -0.126 A 
ATOM     61  CE1 PHE A   6      -7.227  24.125  -7.525 -0.17  1.91    -0.170 A 
ATOM     62  CE2 PHE A   6      -8.950  23.808  -5.919 -0.17  1.91    -0.170 A 
ATOM     63  CZ  PHE A   6      -8.541  24.255  -7.152 -0.11  1.91    -0.107 A 
ATOM     64  HZ  PHE A   6      -9.201  24.676  -7.782  0.13  1.46     0.130 H 
ATOM     65  HA  PHE A   6      -4.716  24.362  -4.359  0.10  1.39     0.098 H 
ATOM     66  HE1 PHE A   6      -6.912  24.452  -8.426  0.14  1.46     0.143 H 
ATOM     67  HE2 PHE A   6      -9.924  23.905  -5.635  0.14  1.46     0.143 H 
ATOM     68  H   PHE A   6      -3.546  22.161  -2.846  0.27  0.60     0.272 HD
ATOM     69  HD2 PHE A   6      -8.354  22.902  -4.161  0.13  1.46     0.133 H 
ATOM     70  HD1 PHE A   6      -5.373  23.447  -6.939  0.13  1.46     0.133 H 
ATOM     71  HB3 PHE A   6      -6.194  21.954  -3.833  0.03  1.49     0.029 H 
ATOM     72  HB2 PHE A   6      -5.097  21.955  -5.041  0.03  1.49     0.029 H 
ATOM     73  N   PHE A   7      -6.204  25.343  -2.714 -0.42  1.82    -0.416 N 
ATOM     74  CA  PHE A   7      -6.930  25.857  -1.590 -0.00  1.91    -0.002 C 
ATOM     75  C   PHE A   7      -8.201  25.076  -1.446  0.60  1.91     0.597 C 
ATOM     76  O   PHE A   7      -8.422  24.410  -0.437 -0.57  1.66    -0.568 OA
ATOM     77  CB  PHE A   7      -7.312  27.334  -1.771 -0.03  1.91    -0.034 C 
ATOM     78  CG  PHE A   7      -7.719  27.861  -0.442  0.01  1.91     0.012 A 
ATOM     79  CD1 PHE A   7      -8.905  27.479   0.135 -0.13  1.91    -0.126 A 
ATOM     80  CD2 PHE A   7      -6.909  28.750   0.224 -0.13  1.91    -0.126 A 
ATOM     81  CE1 PHE A   7      -9.283  27.979   1.359 -0.17  1.91    -0.170 A 
ATOM     82  CE2 PHE A   7      -7.280  29.251   1.448 -0.17  1.91    -0.170 A 
ATOM     83  CZ  PHE A   7      -8.470  28.867   2.019 -0.11  1.91    -0.107 A 
ATOM     84  HZ  PHE A   7      -8.744  29.230   2.911  0.13  1.46     0.130 H 
ATOM     85  HA  PHE A   7      -6.380  25.678  -0.772  0.10  1.39     0.098 H 
ATOM     86  HE1 PHE A   7     -10.163  27.689   1.766  0.14  1.46     0.143 H 
ATOM     87  HE2 PHE A   7      -6.669  29.911   1.929  0.14  1.46     0.143 H 
ATOM     88  H   PHE A   7      -5.982  25.844  -3.568  0.27  0.60     0.272 HD
ATOM     89  HD2 PHE A   7      -6.038  29.034  -0.187  0.13  1.46     0.133 H 
ATOM     90  HD1 PHE A   7      -9.503  26.829  -0.335  0.13  1.46     0.133 H 
ATOM     91  HB3 PHE A   7      -8.070  27.370  -2.368  0.03  1.49     0.029 H 
ATOM     92  HB2 PHE A   7      -6.525  27.807  -2.069  0.03  1.49     0.029 H 
ATOM     93  N   LYS A   8      -9.047  25.142  -2.493 -0.35  1.82    -0.348 N 
ATOM     94  CA  LYS A   8     -10.264  24.399  -2.643 -0.24  1.91    -0.240 C 
ATOM     95  C   LYS A   8     -11.175  25.175  -3.533  0.73  1.91     0.734 C 
ATOM     96  O   LYS A   8     -12.400  25.135  -3.429 -0.59  1.66    -0.589 OA
ATOM     97  CB  LYS A   8     -10.934  23.864  -1.369 -0.01  1.91    -0.009 C 
ATOM     98  CG  LYS A   8     -11.380  24.852  -0.310  0.02  1.91     0.019 C 
ATOM     99  CD  LYS A   8     -12.014  24.097   0.858 -0.05  1.91    -0.048 C 
ATOM    100  CE  LYS A   8     -10.987  23.342   1.712 -0.01  1.91    -0.014 C 
ATOM    101  NZ  LYS A   8     -10.423  22.193   0.966 -0.39  1.82    -0.385 N 
ATOM    102  HA  LYS A   8     -10.061  23.514  -3.068  0.14  1.39     0.143 H 
ATOM    103  HE2 LYS A   8     -10.254  23.974   1.960  0.11  1.10     0.114 H 
ATOM    104  HE3 LYS A   8     -11.441  23.015   2.539  0.11  1.10     0.114 H 
ATOM    105  HG2 LYS A   8     -10.594  25.355   0.025  0.01  1.49     0.010 H 
ATOM    106  HG3 LYS A   8     -12.055  25.469  -0.695  0.01  1.49     0.010 H 
ATOM    107  HZ1 LYS A   8     -11.110  21.835   0.333  0.34  0.60     0.340 HD
ATOM    108  HZ3 LYS A   8      -9.618  22.490   0.450  0.34  0.60     0.340 HD
ATOM    109  HZ2 LYS A   8     -10.157  21.474   1.610  0.34  0.60     0.340 HD
ATOM    110  HD3 LYS A   8     -12.669  23.435   0.497  0.06  1.49     0.062 H 
ATOM    111  HD2 LYS A   8     -12.488  24.752   1.445  0.06  1.49     0.062 H 
ATOM    112  H   LYS A   8      -8.703  25.835  -3.235  0.27  0.60     0.275 HD
ATOM    113  HB3 LYS A   8     -10.286  23.207  -0.936  0.04  1.49     0.036 H 
ATOM    114  HB2 LYS A   8     -11.747  23.320  -1.656  0.04  1.49     0.036 H 
ATOM    115  N   ASN A   9     -10.538  25.863  -4.500 -0.42  1.82    -0.416 N 
ATOM    116  CA  ASN A   9     -11.173  26.650  -5.510  0.01  1.91     0.014 C 
ATOM    117  C   ASN A   9     -11.884  27.792  -4.897  0.60  1.91     0.597 C 
ATOM    118  O   ASN A   9     -12.684  28.447  -5.562 -0.57  1.66    -0.568 OA
ATOM    119  CB  ASN A   9     -12.208  25.893  -6.355 -0.20  1.91    -0.204 C 
ATOM    120  CG  ASN A   9     -11.467  25.074  -7.392  0.71  1.91     0.713 C 
ATOM    121  HA  ASN A   9     -10.443  27.024  -6.102  0.10  1.39     0.105 H 
ATOM    122  H   ASN A   9      -9.479  25.755  -4.432  0.27  0.60     0.272 HD
ATOM    123  HB3 ASN A   9     -12.775  26.548  -6.810  0.08  1.49     0.080 H 
ATOM    124  HB2 ASN A   9     -12.707  25.291  -5.769  0.08  1.49     0.080 H 
ATOM    125  OD1 ASN A   9     -10.692  25.610  -8.182 -0.59  1.66    -0.593 OA
ATOM    126  ND2 ASN A   9     -11.714  23.739  -7.393 -0.92  1.82    -0.919 N 
ATOM    127 2HD2 ASN A   9     -11.253  23.158  -8.046  0.42  0.60     0.420 HD
ATOM    128 1HD2 ASN A   9     -12.360  23.365  -6.733  0.42  0.60     0.420 HD
ATOM    129  N   ILE A  10     -11.685  28.052  -3.602 -0.42  1.82    -0.416 N 
ATOM    130  CA  ILE A  10     -12.344  29.245  -3.201 -0.06  1.91    -0.060 C 
ATOM    131  C   ILE A  10     -11.575  30.415  -3.746  0.60  1.91     0.597 C 
ATOM    132  O   ILE A  10     -12.065  31.144  -4.605 -0.57  1.66    -0.568 OA
ATOM    133  CB  ILE A  10     -12.460  29.298  -1.701  0.13  1.91     0.130 C 
ATOM    134  CG1 ILE A  10     -13.140  30.575  -1.217 -0.04  1.91    -0.043 C 
ATOM    135  CG2 ILE A  10     -11.095  29.014  -1.070 -0.32  1.91    -0.320 C 
ATOM    136  CD1 ILE A  10     -13.402  30.554   0.288 -0.07  1.91    -0.066 C 
ATOM    137  HA  ILE A  10     -13.238  29.254  -3.654  0.09  1.39     0.087 H 
ATOM    138 2HG2 ILE A  10     -11.211  28.929  -0.083  0.09  1.49     0.088 H 
ATOM    139 1HG2 ILE A  10     -10.738  28.165  -1.449  0.09  1.49     0.088 H 
ATOM    140  HB  ILE A  10     -13.021  28.521  -1.394  0.02  1.49     0.019 H 
ATOM    141 2HG1 ILE A  10     -12.558  31.348  -1.427  0.02  1.49     0.024 H 
ATOM    142 3HG1 ILE A  10     -14.009  30.669  -1.685  0.02  1.49     0.024 H 
ATOM    143 3HD1 ILE A  10     -12.534  30.460   0.767  0.02  1.49     0.019 H 
ATOM    144  H   ILE A  10     -11.138  27.438  -3.076  0.27  0.60     0.272 HD
ATOM    145 2HD1 ILE A  10     -13.845  31.407   0.551  0.02  1.49     0.019 H 
ATOM    146 3HG2 ILE A  10     -10.481  29.770  -1.281  0.09  1.49     0.088 H 
ATOM    147 1HD1 ILE A  10     -13.995  29.781   0.503  0.02  1.49     0.019 H 
ATOM    148  N   VAL A  11     -10.348  30.642  -3.231 -0.42  1.82    -0.416 N 
ATOM    149  CA  VAL A  11      -9.479  31.683  -3.697 -0.09  1.91    -0.087 C 
ATOM    150  C   VAL A  11      -8.523  31.301  -4.787  0.60  1.91     0.597 C 
ATOM    151  O   VAL A  11      -8.677  31.680  -5.951 -0.57  1.66    -0.568 OA
ATOM    152  CB  VAL A  11      -8.685  32.256  -2.555  0.30  1.91     0.298 C 
ATOM    153  CG1 VAL A  11      -8.057  31.102  -1.749 -0.32  1.91    -0.319 C 
ATOM    154  CG2 VAL A  11      -7.638  33.212  -3.138 -0.32  1.91    -0.319 C 
ATOM    155  HA  VAL A  11     -10.069  32.452  -4.050  0.10  1.39     0.097 H 
ATOM    156 1HG1 VAL A  11      -7.601  31.479  -0.946  0.08  1.49     0.079 H 
ATOM    157 1HG2 VAL A  11      -7.721  34.098  -2.687  0.08  1.49     0.079 H 
ATOM    158  HB  VAL A  11      -9.303  32.720  -1.934 -0.03  1.49    -0.030 H 
ATOM    159 2HG1 VAL A  11      -8.777  30.474  -1.466  0.08  1.49     0.079 H 
ATOM    160 3HG1 VAL A  11      -7.397  30.626  -2.324  0.08  1.49     0.079 H 
ATOM    161  H   VAL A  11     -10.100  29.976  -2.456  0.27  0.60     0.272 HD
ATOM    162 3HG2 VAL A  11      -6.729  32.832  -2.979  0.08  1.49     0.079 H 
ATOM    163 2HG2 VAL A  11      -7.799  33.311  -4.118  0.08  1.49     0.079 H 
ATOM    164  N   THR A  12      -7.544  30.432  -4.435 -0.42  1.82    -0.416 N 
ATOM    165  H   THR A  12      -7.680  29.972  -3.535  0.27  0.60     0.272 HD
ENDROOT
BRANCH 164 166
ATOM    166  CA  THR A  12      -6.435  30.234  -5.325 -0.04  1.91    -0.039 C 
ATOM    167  HA  THR A  12      -6.754  29.693  -6.127  0.10  1.39     0.101 H 
BRANCH 166 168
ATOM    168  C   THR A  12      -5.297  29.495  -4.679  0.60  1.91     0.597 C 
ATOM    169  N   PRO A  13      -4.640  28.742  -5.511 -0.28  1.82    -0.280 N 
ATOM    170  CA  PRO A  13      -3.516  27.953  -5.106 -0.13  1.91    -0.134 C 
ATOM    171  CD  PRO A  13      -4.583  29.069  -6.926  0.04  1.91     0.043 C 
ATOM    172  HA  PRO A  13      -3.798  27.173  -4.539  0.08  1.39     0.078 H 
ATOM    173  CB  PRO A  13      -2.892  27.429  -6.393 -0.05  1.91    -0.054 C 
ATOM    174  HB3 PRO A  13      -3.295  26.564  -6.669  0.04  1.49     0.038 H 
ATOM    175  HB2 PRO A  13      -1.904  27.342  -6.312  0.04  1.49     0.038 H 
ATOM    176  CG  PRO A  13      -3.236  28.518  -7.422  0.05  1.91     0.047 C 
ATOM    177  HG3 PRO A  13      -3.331  28.116  -8.321  0.02  1.49     0.017 H 
ATOM    178  HG2 PRO A  13      -2.544  29.223  -7.415  0.02  1.49     0.017 H 
ATOM    179  HD3 PRO A  13      -5.342  28.640  -7.434  0.03  1.39     0.033 H 
ATOM    180  HD2 PRO A  13      -4.628  30.064  -7.076  0.03  1.39     0.033 H 
ATOM    181  O   THR A  12      -5.020  29.603  -3.484 -0.57  1.66    -0.568 OA
BRANCH 170 182
ATOM    182  C   PRO A  13      -2.547  28.831  -4.371  0.66  1.91     0.663 C 
ATOM    183  OXT PRO A  13      -2.010  29.788  -4.994 -0.77  1.66    -0.770 OA
ATOM    184  O   PRO A  13      -2.318  28.556  -3.157 -0.77  1.66    -0.770 OA
ENDBRANCH 170 182
ENDBRANCH 166 168
BRANCH 166 185
ATOM    185  CB  THR A  12      -5.874  31.528  -5.850  0.37  1.91     0.365 C 
ATOM    186  HB  THR A  12      -6.548  32.287  -5.682  0.00  1.39     0.004 H 
BRANCH 185 187
ATOM    187  OG1 THR A  12      -5.656  31.444  -7.255 -0.68  1.72    -0.676 OA
ATOM    188  HG1 THR A  12      -4.906  32.056  -7.534  0.41  0.00     0.410 HD
ENDBRANCH 185 187
BRANCH 185 189
ATOM    189  CG2 THR A  12      -4.552  31.842  -5.120 -0.24  1.91    -0.244 C 
ATOM    190 2HG2 THR A  12      -3.822  31.954  -5.794  0.06  1.49     0.064 H 
ATOM    191 1HG2 THR A  12      -4.657  32.685  -4.594  0.06  1.49     0.064 H 
ATOM    192 3HG2 THR A  12      -4.329  31.086  -4.504  0.06  1.49     0.064 H 
ENDBRANCH 185 189
ENDBRANCH 166 185
ENDBRANCH 164 166
BRANCH   1 193
ATOM    193  CA  PRO A   2       8.214  24.687  -2.492 -0.03  1.91    -0.027 C 
ATOM    194  HA  PRO A   2       8.258  24.210  -1.587  0.06  1.39     0.064 H 
ATOM    195  CB  PRO A   2       7.964  26.132  -2.062 -0.01  1.91    -0.007 C 
ATOM    196  HB3 PRO A   2       8.112  26.253  -1.083  0.03  1.49     0.025 H 
ATOM    197  HB2 PRO A   2       7.042  26.430  -2.304  0.03  1.49     0.025 H 
ATOM    198  CG  PRO A   2       8.999  26.952  -2.850  0.02  1.91     0.019 C 
ATOM    199  HG2 PRO A   2       8.614  27.245  -3.713  0.02  1.49     0.021 H 
ATOM    200  HG3 PRO A   2       9.299  27.727  -2.311  0.02  1.49     0.021 H 
ATOM    201  CD  PRO A   2      10.151  25.963  -3.072  0.02  1.91     0.019 C 
ATOM    202  N   PRO A   2       9.496  24.672  -3.134 -0.25  1.82    -0.255 N 
ATOM    203  HD2 PRO A   2      10.631  26.174  -3.926  0.04  1.39     0.039 H 
ATOM    204  HD3 PRO A   2      10.803  26.011  -2.310  0.04  1.39     0.039 H 
ATOM    205  C   ASN A   1      10.181  23.592  -3.353  0.62  1.91     0.616 C 
ATOM    206  O   ASN A   1       9.839  22.476  -2.967 -0.57  1.66    -0.572 OA
BRANCH 205 207
ATOM    207  CA  ASN A   1      11.463  23.833  -4.081  0.04  1.91     0.037 C 
ATOM    208  HA  ASN A   1      11.608  24.831  -4.139  0.12  1.10     0.123 H 
BRANCH 207 209
ATOM    209  N   ASN A   1      12.624  23.291  -3.340  0.18  1.82     0.180 N 
ATOM    210  H   ASN A   1      13.445  23.383  -3.902  0.19  0.60     0.192 HD
ATOM    211  H3  ASN A   1      12.461  22.326  -3.136  0.19  0.60     0.192 HD
ATOM    212  H2  ASN A   1      12.738  23.801  -2.489  0.19  0.60     0.192 HD
ENDBRANCH 207 209
BRANCH 207 213
ATOM    213  CB  ASN A   1      11.360  23.187  -5.477 -0.03  1.91    -0.028 C 
ATOM    214  HB2 ASN A   1      10.507  22.712  -5.536  0.05  1.49     0.051 H 
ATOM    215  HB3 ASN A   1      11.455  23.890  -6.151  0.05  1.49     0.051 H 
BRANCH 213 216
ATOM    216  CG  ASN A   1      12.495  22.186  -5.641  0.58  1.91     0.583 C 
ATOM    217  OD1 ASN A   1      13.646  22.566  -5.850 -0.57  1.66    -0.574 OA
ATOM    218  ND2 ASN A   1      12.169  20.870  -5.551 -0.86  1.82    -0.863 N 
ATOM    219 1HD2 ASN A   1      11.216  20.622  -5.390  0.41  0.60     0.410 HD
ATOM    220 2HD2 ASN A   1      12.867  20.186  -5.645  0.41  0.60     0.410 HD
ENDBRANCH 213 216
ENDBRANCH 207 213
ENDBRANCH 205 207
ENDBRANCH   1 193
TORSDOF 55
ENDMDL
