MODEL 1
REMARK VINA RESULT:      -7.5      0.000      0.000
REMARK  15 active torsions:
REMARK  status: ('A' for Active; 'I' for Inactive)
REMARK    1  A    between atoms: N_1  and  CA_2 
REMARK    2  A    between atoms: CA_2  and  CB_5 
REMARK    3  A    between atoms: CA_2  and  C_3 
REMARK       I    between atoms: C_3  and  N_23 
REMARK    4  A    between atoms: CB_5  and  CG_6 
REMARK    5  A    between atoms: N_23  and  CA_24 
REMARK    6  A    between atoms: CA_24  and  C_25 
REMARK    7  A    between atoms: CA_24  and  CB_27 
REMARK       I    between atoms: C_25  and  N_43 
REMARK    8  A    between atoms: CB_27  and  CG_28 
REMARK    9  A    between atoms: N_43  and  CA_44 
REMARK   10  A    between atoms: CA_44  and  CB_47 
REMARK   11  A    between atoms: CA_44  and  C_45 
REMARK   12  A    between atoms: CB_47  and  CG_48 
REMARK   13  A    between atoms: CG_48  and  CD_49 
REMARK   14  A    between atoms: CD_49  and  CE_50 
REMARK   15  A    between atoms: CE_50  and  NZ_51 
ROOT
ATOM      1  CA  PHE A   2      -9.074  24.231  -3.200 -0.00  1.91    -0.002 C 
ATOM      2  HA  PHE A   2      -9.031  23.432  -2.593  0.10  1.39     0.098 H 
ENDROOT
BRANCH   1   3
ATOM      3  C   PHE A   2      -9.569  23.760  -4.528  0.60  1.91     0.597 C 
ATOM      4  O   PHE A   2      -9.312  22.591  -4.925 -0.57  1.66    -0.568 OA
ATOM      5  N   LYS A   3     -10.327  24.652  -5.346 -0.35  1.82    -0.348 N 
ATOM      6  H   LYS A   3     -10.447  25.574  -4.895  0.28  0.60     0.276 HD
BRANCH   5   7
ATOM      7  CA  LYS A   3     -10.849  24.271  -6.650 -0.29  1.91    -0.290 C 
ATOM      8  HA  LYS A   3     -10.807  23.270  -6.733  0.14  1.39     0.144 H 
BRANCH   7   9
ATOM      9  CB  LYS A   3     -12.301  24.709  -6.777 -0.05  1.91    -0.054 C 
ATOM     10  HB3 LYS A   3     -12.762  24.095  -7.394  0.05  1.49     0.048 H 
ATOM     11  HB2 LYS A   3     -12.324  25.639  -7.096  0.05  1.49     0.048 H 
BRANCH   9  12
ATOM     12  CG  LYS A   3     -12.995  24.646  -5.426  0.02  1.91     0.023 C 
ATOM     13  HG2 LYS A   3     -13.245  23.701  -5.230  0.01  1.49     0.013 H 
ATOM     14  HG3 LYS A   3     -12.378  24.989  -4.725  0.01  1.49     0.013 H 
BRANCH  12  15
ATOM     15  CD  LYS A   3     -14.255  25.497  -5.434 -0.04  1.91    -0.039 C 
ATOM     16  HD2 LYS A   3     -14.304  25.993  -6.294  0.06  1.49     0.061 H 
ATOM     17  HD3 LYS A   3     -15.046  24.904  -5.327  0.06  1.49     0.061 H 
BRANCH  15  18
ATOM     18  CE  LYS A   3     -14.247  26.503  -4.294 -0.02  1.91    -0.018 C 
ATOM     19  HE2 LYS A   3     -15.056  27.086  -4.380  0.11  1.10     0.112 H 
ATOM     20  HE3 LYS A   3     -14.293  26.002  -3.428  0.11  1.10     0.112 H 
BRANCH  18  21
ATOM     21  NZ  LYS A   3     -13.039  27.309  -4.342 -0.37  1.82    -0.374 N 
ATOM     22  HZ3 LYS A   3     -12.854  27.716  -3.441  0.34  0.60     0.337 HD
ATOM     23  HZ1 LYS A   3     -13.141  28.051  -5.014  0.34  0.60     0.337 HD
ATOM     24  HZ2 LYS A   3     -12.251  26.743  -4.606  0.34  0.60     0.337 HD
ENDBRANCH  18  21
ENDBRANCH  15  18
ENDBRANCH  12  15
ENDBRANCH   9  12
ENDBRANCH   7   9
BRANCH   7  25
ATOM     25  C   LYS A   3     -10.017  24.896  -7.721  0.85  1.91     0.849 C 
ATOM     26  OXT LYS A   3      -8.720  24.453  -7.953 -0.83  1.66    -0.825 OA
ATOM     27  O   LYS A   3     -10.496  25.825  -8.421 -0.83  1.66    -0.825 OA
ENDBRANCH   7  25
ENDBRANCH   5   7
ENDBRANCH   1   3
BRANCH   1  28
ATOM     28  CB  PHE A   2      -9.976  25.327  -2.639 -0.03  1.91    -0.034 C 
ATOM     29  HB3 PHE A   2     -10.537  25.660  -3.371  0.03  1.49     0.029 H 
ATOM     30  HB2 PHE A   2      -9.403  26.022  -2.253  0.03  1.49     0.029 H 
BRANCH  28  31
ATOM     31  CG  PHE A   2     -10.869  24.801  -1.563  0.01  1.91     0.012 A 
ATOM     32  CD2 PHE A   2     -12.242  24.633  -1.788 -0.13  1.91    -0.126 A 
ATOM     33  HD2 PHE A   2     -12.628  24.855  -2.676  0.13  1.46     0.133 H 
ATOM     34  CE2 PHE A   2     -13.068  24.156  -0.767 -0.17  1.91    -0.170 A 
ATOM     35  HE2 PHE A   2     -14.054  24.032  -0.939  0.14  1.46     0.143 H 
ATOM     36  CZ  PHE A   2     -12.524  23.850   0.484 -0.11  1.91    -0.107 A 
ATOM     37  HZ  PHE A   2     -13.110  23.508   1.215  0.13  1.46     0.130 H 
ATOM     38  CE1 PHE A   2     -11.156  24.025   0.715 -0.17  1.91    -0.170 A 
ATOM     39  HE1 PHE A   2     -10.760  23.807   1.611  0.14  1.46     0.143 H 
ATOM     40  CD1 PHE A   2     -10.330  24.503  -0.307 -0.13  1.91    -0.126 A 
ATOM     41  HD1 PHE A   2      -9.365  24.630  -0.137  0.13  1.46     0.133 H 
ENDBRANCH  28  31
ENDBRANCH   1  28
BRANCH   1  42
ATOM     42  N   PHE A   2      -7.712  24.727  -3.334 -0.42  1.82    -0.416 N 
ATOM     43  H   PHE A   2      -7.391  25.431  -4.017  0.27  0.60     0.272 HD
ATOM     44  C   PHE A   1      -6.640  24.272  -2.501  0.61  1.91     0.612 C 
ATOM     45  O   PHE A   1      -6.840  23.386  -1.628 -0.57  1.66    -0.571 OA
BRANCH  44  46
ATOM     46  CA  PHE A   1      -5.272  24.841  -2.664  0.07  1.91     0.073 C 
ATOM     47  HA  PHE A   1      -5.356  25.685  -3.203  0.10  1.10     0.104 H 
BRANCH  46  48
ATOM     48  N   PHE A   1      -4.740  25.225  -1.367  0.17  1.82     0.174 N 
ATOM     49  H2  PHE A   1      -3.832  24.822  -1.233  0.19  0.60     0.192 HD
ATOM     50  H3  PHE A   1      -4.663  26.223  -1.307  0.19  0.60     0.192 HD
ATOM     51  H   PHE A   1      -5.347  24.904  -0.636  0.19  0.60     0.192 HD
ENDBRANCH  46  48
BRANCH  46  52
ATOM     52  CB  PHE A   1      -4.355  23.820  -3.326  0.03  1.91     0.033 C 
ATOM     53  HB2 PHE A   1      -3.453  24.202  -3.363  0.01  1.49     0.010 H 
ATOM     54  HB3 PHE A   1      -4.395  22.992  -2.801  0.01  1.49     0.010 H 
BRANCH  52  55
ATOM     55  CG  PHE A   1      -4.794  23.516  -4.720  0.00  1.91     0.003 A 
ATOM     56  CD2 PHE A   1      -4.438  24.379  -5.761 -0.14  1.91    -0.139 A 
ATOM     57  HD2 PHE A   1      -3.904  25.193  -5.569  0.14  1.46     0.137 H 
ATOM     58  CE2 PHE A   1      -4.833  24.097  -7.072 -0.16  1.91    -0.160 A 
ATOM     59  HE2 PHE A   1      -4.576  24.726  -7.818  0.14  1.46     0.143 H 
ATOM     60  CZ  PHE A   1      -5.581  22.947  -7.345 -0.12  1.91    -0.121 A 
ATOM     61  HZ  PHE A   1      -5.866  22.743  -8.279  0.13  1.46     0.133 H 
ATOM     62  CE1 PHE A   1      -5.933  22.078  -6.307 -0.16  1.91    -0.160 A 
ATOM     63  HE1 PHE A   1      -6.467  21.250  -6.497  0.14  1.46     0.143 H 
ATOM     64  CD1 PHE A   1      -5.538  22.361  -4.996 -0.14  1.91    -0.139 A 
ATOM     65  HD1 PHE A   1      -5.787  21.745  -4.265  0.14  1.46     0.137 H 
ENDBRANCH  52  55
ENDBRANCH  46  52
ENDBRANCH  44  46
ENDBRANCH   1  42
TORSDOF 15
ENDMDL
