REMARK  15 active torsions:
REMARK  status: ('A' for Active; 'I' for Inactive)
REMARK    1  A    between atoms: N_1  and  CA_2 
REMARK    2  A    between atoms: CA_2  and  CB_5 
REMARK    3  A    between atoms: CA_2  and  C_3 
REMARK       I    between atoms: C_3  and  N_23 
REMARK    4  A    between atoms: CB_5  and  CG_6 
REMARK    5  A    between atoms: N_23  and  CA_24 
REMARK    6  A    between atoms: CA_24  and  C_25 
REMARK    7  A    between atoms: CA_24  and  CB_27 
REMARK       I    between atoms: C_25  and  N_43 
REMARK    8  A    between atoms: CB_27  and  CG_28 
REMARK    9  A    between atoms: N_43  and  CA_44 
REMARK   10  A    between atoms: CA_44  and  CB_47 
REMARK   11  A    between atoms: CA_44  and  C_45 
REMARK   12  A    between atoms: CB_47  and  CG_48 
REMARK   13  A    between atoms: CG_48  and  CD_49 
REMARK   14  A    between atoms: CD_49  and  CE_50 
REMARK   15  A    between atoms: CE_50  and  NZ_51 
ROOT
ATOM      1  CA  PHE A   2      -0.052   1.063   0.070 -0.00  1.91    -0.002 C 
ATOM      2  HA  PHE A   2      -0.196   1.391   1.009  0.10  1.39     0.098 H 
ENDROOT
BRANCH   1   3
ATOM      3  C   PHE A   2      -1.316   0.404  -0.375  0.60  1.91     0.597 C 
ATOM      4  O   PHE A   2      -1.371  -0.176  -1.494 -0.57  1.66    -0.568 OA
ATOM      5  N   LYS A   3      -2.462   0.447   0.476 -0.35  1.82    -0.348 N 
ATOM      6  H   LYS A   3      -2.269   0.963   1.350  0.28  0.60     0.276 HD
BRANCH   5   7
ATOM      7  CA  LYS A   3      -3.729  -0.173   0.119 -0.29  1.91    -0.290 C 
ATOM      8  HA  LYS A   3      -3.936   0.047  -0.840  0.14  1.39     0.144 H 
BRANCH   7   9
ATOM      9  CB  LYS A   3      -3.626  -1.685   0.260 -0.05  1.91    -0.054 C 
ATOM     10  HB3 LYS A   3      -3.693  -1.917   1.215  0.05  1.49     0.048 H 
ATOM     11  HB2 LYS A   3      -2.774  -1.981  -0.133  0.05  1.49     0.048 H 
BRANCH   9  12
ATOM     12  CG  LYS A   3      -4.762  -2.367  -0.484  0.02  1.91     0.023 C 
ATOM     13  HG2 LYS A   3      -5.632  -2.035  -0.128  0.01  1.49     0.013 H 
ATOM     14  HG3 LYS A   3      -4.689  -2.159  -1.455  0.01  1.49     0.013 H 
BRANCH  12  15
ATOM     15  CD  LYS A   3      -4.695  -3.874  -0.296 -0.04  1.91    -0.039 C 
ATOM     16  HD2 LYS A   3      -5.177  -4.314  -1.046  0.06  1.49     0.061 H 
ATOM     17  HD3 LYS A   3      -3.742  -4.156  -0.281  0.06  1.49     0.061 H 
BRANCH  15  18
ATOM     18  CE  LYS A   3      -5.346  -4.295   1.012 -0.02  1.91    -0.018 C 
ATOM     19  HE2 LYS A   3      -6.197  -3.779   1.122  0.11  1.10     0.112 H 
ATOM     20  HE3 LYS A   3      -5.558  -5.272   0.960  0.11  1.10     0.112 H 
BRANCH  18  21
ATOM     21  NZ  LYS A   3      -4.452  -4.034   2.127 -0.37  1.82    -0.374 N 
ATOM     22  HZ3 LYS A   3      -4.579  -3.095   2.464  0.34  0.60     0.337 HD
ATOM     23  HZ1 LYS A   3      -3.494  -4.145   1.840  0.34  0.60     0.337 HD
ATOM     24  HZ2 LYS A   3      -4.638  -4.673   2.881  0.34  0.60     0.337 HD
ENDBRANCH  18  21
ENDBRANCH  15  18
ENDBRANCH  12  15
ENDBRANCH   9  12
ENDBRANCH   7   9
BRANCH   7  25
ATOM     25  C   LYS A   3      -4.811   0.364   0.998  0.85  1.91     0.849 C 
ATOM     26  OXT LYS A   3      -4.748   0.193   2.376 -0.83  1.66    -0.825 OA
ATOM     27  O   LYS A   3      -5.782   0.979   0.487 -0.83  1.66    -0.825 OA
ENDBRANCH   7  25
ENDBRANCH   5   7
ENDBRANCH   1   3
BRANCH   1  28
ATOM     28  CB  PHE A   2       0.335   2.196  -0.877 -0.03  1.91    -0.034 C 
ATOM     29  HB3 PHE A   2       0.085   1.928  -1.786  0.03  1.49     0.029 H 
ATOM     30  HB2 PHE A   2       1.297   2.356  -0.779  0.03  1.49     0.029 H 
BRANCH  28  31
ATOM     31  CG  PHE A   2      -0.389   3.459  -0.542  0.01  1.91     0.012 A 
ATOM     32  CD2 PHE A   2      -1.766   3.579  -0.772 -0.13  1.91    -0.126 A 
ATOM     33  HD2 PHE A   2      -2.272   2.814  -1.152  0.13  1.46     0.133 H 
ATOM     34  CE2 PHE A   2      -2.427   4.772  -0.469 -0.17  1.91    -0.170 A 
ATOM     35  HE2 PHE A   2      -3.420   4.849  -0.632  0.14  1.46     0.143 H 
ATOM     36  CZ  PHE A   2      -1.712   5.851   0.060 -0.11  1.91    -0.107 A 
ATOM     37  HZ  PHE A   2      -2.180   6.704   0.279  0.13  1.46     0.130 H 
ATOM     38  CE1 PHE A   2      -0.336   5.737   0.283 -0.17  1.91    -0.170 A 
ATOM     39  HE1 PHE A   2       0.183   6.508   0.662  0.14  1.46     0.143 H 
ATOM     40  CD1 PHE A   2       0.325   4.543  -0.021 -0.13  1.91    -0.126 A 
ATOM     41  HD1 PHE A   2       1.298   4.470   0.133  0.13  1.46     0.133 H 
ENDBRANCH  28  31
ENDBRANCH   1  28
BRANCH   1  42
ATOM     42  N   PHE A   2       1.018   0.078   0.132 -0.42  1.82    -0.416 N 
ATOM     43  H   PHE A   2       0.999  -0.860  -0.299  0.27  0.60     0.272 HD
ATOM     44  C   PHE A   1       2.249   0.318   0.821  0.61  1.91     0.612 C 
ATOM     45  O   PHE A   1       2.437   1.401   1.436 -0.57  1.66    -0.571 OA
BRANCH  44  46
ATOM     46  CA  PHE A   1       3.321  -0.718   0.823  0.07  1.91     0.073 C 
ATOM     47  HA  PHE A   1       4.061  -0.388   1.418  0.10  1.10     0.104 H 
BRANCH  46  48
ATOM     48  N   PHE A   1       2.820  -1.944   1.422  0.17  1.82     0.174 N 
ATOM     49  H2  PHE A   1       2.509  -1.768   2.359  0.19  0.60     0.192 HD
ATOM     50  H3  PHE A   1       2.050  -2.300   0.887  0.19  0.60     0.192 HD
ATOM     51  H   PHE A   1       3.544  -2.638   1.446  0.19  0.60     0.192 HD
ENDBRANCH  46  48
BRANCH  46  52
ATOM     52  CB  PHE A   1       3.796  -0.985  -0.600  0.03  1.91     0.033 C 
ATOM     53  HB2 PHE A   1       3.102  -1.504  -1.058  0.01  1.49     0.010 H 
ATOM     54  HB3 PHE A   1       3.969  -0.120  -1.028  0.01  1.49     0.010 H 
BRANCH  52  55
ATOM     55  CG  PHE A   1       5.061  -1.778  -0.612  0.00  1.91     0.003 A 
ATOM     56  CD2 PHE A   1       5.065  -3.066  -1.157 -0.14  1.91    -0.139 A 
ATOM     57  HD2 PHE A   1       4.227  -3.451  -1.524  0.14  1.46     0.137 H 
ATOM     58  CE2 PHE A   1       6.247  -3.812  -1.185 -0.16  1.91    -0.160 A 
ATOM     59  HE2 PHE A   1       6.242  -4.742  -1.577  0.14  1.46     0.143 H 
ATOM     60  CZ  PHE A   1       7.429  -3.268  -0.673 -0.12  1.91    -0.121 A 
ATOM     61  HZ  PHE A   1       8.274  -3.798  -0.690  0.13  1.46     0.133 H 
ATOM     62  CE1 PHE A   1       7.430  -1.978  -0.134 -0.16  1.91    -0.160 A 
ATOM     63  HE1 PHE A   1       8.276  -1.581   0.233  0.14  1.46     0.143 H 
ATOM     64  CD1 PHE A   1       6.248  -1.232  -0.105 -0.14  1.91    -0.139 A 
ATOM     65  HD1 PHE A   1       6.252  -0.321   0.275  0.14  1.46     0.137 H 
ENDBRANCH  52  55
ENDBRANCH  46  52
ENDBRANCH  44  46
ENDBRANCH   1  42
TORSDOF 15
