MODEL 1
REMARK VINA RESULT:     -10.3      0.000      0.000
REMARK  16 active torsions:
REMARK  status: ('A' for Active; 'I' for Inactive)
REMARK    1  A    between atoms: N_1  and  CA_2 
REMARK    2  A    between atoms: CA_2  and  CB_5 
REMARK    3  A    between atoms: CA_2  and  C_3 
REMARK       I    between atoms: C_3  and  N_18 
REMARK    4  A    between atoms: CB_5  and  CG_6 
REMARK    5  A    between atoms: CG_6  and  CD_7 
REMARK    6  A    between atoms: N_18  and  CA_19 
REMARK    7  A    between atoms: CA_19  and  CB_22 
REMARK    8  A    between atoms: CA_19  and  C_20 
REMARK       I    between atoms: C_20  and  N_32 
REMARK    9  A    between atoms: CB_22  and  CG_23 
REMARK       I    between atoms: CG_23  and  ND2_29 
REMARK       I    between atoms: CA_33  and  C_34 
REMARK       I    between atoms: C_34  and  N_46 
REMARK       I    between atoms: N_46  and  CA_47 
REMARK       I    between atoms: CA_47  and  CB_50 
REMARK       I    between atoms: CA_47  and  C_48 
REMARK       I    between atoms: C_48  and  N_62 
REMARK       I    between atoms: CB_50  and  CG1_51 
REMARK       I    between atoms: CB_50  and  CG2_52 
REMARK       I    between atoms: N_62  and  CA_63 
REMARK       I    between atoms: CA_63  and  C_64 
REMARK       I    between atoms: CA_63  and  CB_66 
REMARK       I    between atoms: C_64  and  N_78 
REMARK       I    between atoms: CB_66  and  CG2_68 
REMARK       I    between atoms: CB_66  and  CG1_67 
REMARK       I    between atoms: N_78  and  CA_79 
REMARK       I    between atoms: CA_79  and  CB_83 
REMARK       I    between atoms: CA_79  and  C_80 
REMARK       I    between atoms: C_80  and  N_96 
REMARK       I    between atoms: CG_82  and  CB_83 
REMARK       I    between atoms: N_96  and  CA_97 
REMARK       I    between atoms: CA_97  and  CB_100 
REMARK       I    between atoms: CA_97  and  C_98 
REMARK       I    between atoms: C_98  and  N_116 
REMARK       I    between atoms: CB_100  and  CG_101 
REMARK       I    between atoms: N_116  and  CA_117 
REMARK       I    between atoms: CA_117  and  C_118 
REMARK       I    between atoms: CA_117  and  CB_120 
REMARK       I    between atoms: C_118  and  N_136 
REMARK       I    between atoms: CB_120  and  CG_121 
REMARK       I    between atoms: N_136  and  CA_137 
REMARK       I    between atoms: CA_137  and  C_138 
REMARK       I    between atoms: CA_137  and  CB_140 
REMARK       I    between atoms: C_138  and  N_158 
REMARK       I    between atoms: CB_140  and  CG_141 
REMARK       I    between atoms: CG_141  and  CD_142 
REMARK       I    between atoms: CD_142  and  CE_143 
REMARK       I    between atoms: CE_143  and  NZ_144 
REMARK       I    between atoms: N_158  and  CA_159 
REMARK       I    between atoms: CA_159  and  CB_162 
REMARK       I    between atoms: CA_159  and  C_160 
REMARK       I    between atoms: C_160  and  N_172 
REMARK       I    between atoms: CB_162  and  CG_163 
REMARK       I    between atoms: CG_163  and  ND2_169 
REMARK       I    between atoms: N_172  and  CA_173 
REMARK       I    between atoms: CA_173  and  C_174 
REMARK       I    between atoms: CA_173  and  CB_176 
REMARK       I    between atoms: C_174  and  N_191 
REMARK       I    between atoms: CB_176  and  CG2_178 
REMARK       I    between atoms: CB_176  and  CG1_177 
REMARK       I    between atoms: CG1_177  and  CD1_179 
REMARK       I    between atoms: N_191  and  CA_192 
REMARK       I    between atoms: CA_192  and  C_193 
REMARK       I    between atoms: CA_192  and  CB_195 
REMARK       I    between atoms: C_193  and  N_207 
REMARK       I    between atoms: CB_195  and  CG2_197 
REMARK       I    between atoms: CB_195  and  CG1_196 
REMARK       I    between atoms: N_207  and  CA_208 
REMARK       I    between atoms: CA_208  and  C_209 
REMARK       I    between atoms: CA_208  and  CB_211 
REMARK       I    between atoms: C_209  and  N_221 
REMARK       I    between atoms: CB_211  and  OG1_212 
REMARK       I    between atoms: CB_211  and  CG2_213 
REMARK   10  A    between atoms: CA_222  and  C_223 
REMARK       I    between atoms: C_223  and  N_235 
REMARK   11  A    between atoms: N_235  and  CA_236 
REMARK   12  A    between atoms: CA_236  and  C_237 
REMARK   13  A    between atoms: CA_236  and  CB_239 
REMARK   14  A    between atoms: CB_239  and  CG_240 
REMARK   15  A    between atoms: CG_240  and  CD_241 
REMARK   16  A    between atoms: CD_241  and  NE_242 
REMARK       I    between atoms: NE_242  and  CZ_243 
REMARK       I    between atoms: CZ_243  and  NH1_244 
ROOT
ATOM      1  C   ASN A   2       7.549  26.959  -1.546  0.60  1.91     0.597 C 
ATOM      2  O   ASN A   2       7.700  26.138  -0.643 -0.57  1.66    -0.568 OA
ATOM      3  N   PRO A   3       7.102  28.156  -1.309 -0.25  1.82    -0.255 N 
ATOM      4  CA  PRO A   3       6.625  28.428   0.008 -0.03  1.91    -0.027 C 
ATOM      5  C   PRO A   3       5.404  27.609   0.259  0.59  1.91     0.590 C 
ATOM      6  O   PRO A   3       5.332  26.964   1.303 -0.57  1.66    -0.575 OA
ATOM      7  CD  PRO A   3       7.658  29.339  -1.946  0.02  1.91     0.019 C 
ATOM      8  CB  PRO A   3       6.432  29.940   0.075 -0.01  1.91    -0.007 C 
ATOM      9  CG  PRO A   3       7.490  30.469  -0.912  0.02  1.91     0.019 C 
ATOM     10  HG2 PRO A   3       7.162  31.298  -1.349  0.02  1.49     0.021 H 
ATOM     11  HA  PRO A   3       7.332  28.248   0.701  0.06  1.39     0.064 H 
ATOM     12  HD3 PRO A   3       8.633  29.214  -2.166  0.04  1.39     0.039 H 
ATOM     13  HD2 PRO A   3       7.166  29.567  -2.792  0.04  1.39     0.039 H 
ATOM     14  HG3 PRO A   3       8.343  30.639  -0.435  0.02  1.49     0.021 H 
ATOM     15  HB3 PRO A   3       6.615  30.292   0.984  0.03  1.49     0.025 H 
ATOM     16  HB2 PRO A   3       5.526  30.207  -0.229  0.03  1.49     0.025 H 
ATOM     17  N   VAL A   4       4.469  27.575  -0.715 -0.42  1.82    -0.416 N 
ATOM     18  CA  VAL A   4       3.246  26.839  -0.560 -0.09  1.91    -0.087 C 
ATOM     19  C   VAL A   4       3.060  26.056  -1.820  0.60  1.91     0.597 C 
ATOM     20  O   VAL A   4       3.572  26.428  -2.875 -0.57  1.66    -0.568 OA
ATOM     21  CB  VAL A   4       2.042  27.714  -0.387  0.30  1.91     0.298 C 
ATOM     22  CG1 VAL A   4       0.793  26.818  -0.305 -0.32  1.91    -0.319 C 
ATOM     23  CG2 VAL A   4       2.256  28.599   0.852 -0.32  1.91    -0.319 C 
ATOM     24  HA  VAL A   4       3.354  26.201   0.196  0.10  1.39     0.097 H 
ATOM     25 1HG1 VAL A   4       1.079  25.866  -0.232  0.08  1.49     0.079 H 
ATOM     26 1HG2 VAL A   4       2.889  29.333   0.617  0.08  1.49     0.079 H 
ATOM     27  HB  VAL A   4       1.925  28.271  -1.198 -0.03  1.49    -0.030 H 
ATOM     28 2HG1 VAL A   4       0.260  27.075   0.498  0.08  1.49     0.079 H 
ATOM     29 3HG1 VAL A   4       0.246  26.945  -1.129  0.08  1.49     0.079 H 
ATOM     30  H   VAL A   4       4.724  28.123  -1.561  0.27  0.60     0.272 HD
ATOM     31 3HG2 VAL A   4       1.378  28.979   1.132  0.08  1.49     0.079 H 
ATOM     32 2HG2 VAL A   4       2.637  28.040   1.584  0.08  1.49     0.079 H 
ATOM     33  N   VAL A   5       2.334  24.926  -1.732 -0.42  1.82    -0.416 N 
ATOM     34  CA  VAL A   5       2.208  24.058  -2.862 -0.09  1.91    -0.087 C 
ATOM     35  C   VAL A   5       1.526  24.699  -4.045  0.60  1.91     0.597 C 
ATOM     36  O   VAL A   5       2.154  24.870  -5.089 -0.57  1.66    -0.568 OA
ATOM     37  CB  VAL A   5       1.491  22.783  -2.509  0.30  1.91     0.298 C 
ATOM     38  CG1 VAL A   5       0.103  23.116  -1.930 -0.32  1.91    -0.319 C 
ATOM     39  CG2 VAL A   5       1.452  21.888  -3.757 -0.32  1.91    -0.319 C 
ATOM     40  HA  VAL A   5       3.145  23.779  -3.159  0.10  1.39     0.097 H 
ATOM     41 1HG1 VAL A   5      -0.559  23.152  -2.674  0.08  1.49     0.079 H 
ATOM     42 1HG2 VAL A   5       2.331  21.424  -3.850  0.08  1.49     0.079 H 
ATOM     43  HB  VAL A   5       1.989  22.323  -1.782 -0.03  1.49    -0.030 H 
ATOM     44 2HG1 VAL A   5      -0.156  22.407  -1.278  0.08  1.49     0.079 H 
ATOM     45 3HG1 VAL A   5       0.146  24.000  -1.471  0.08  1.49     0.079 H 
ATOM     46  H   VAL A   5       1.903  24.766  -0.808  0.27  0.60     0.272 HD
ATOM     47 3HG2 VAL A   5       0.721  21.218  -3.651  0.08  1.49     0.079 H 
ATOM     48 2HG2 VAL A   5       1.280  22.458  -4.558  0.08  1.49     0.079 H 
ATOM     49  N   HIS A   6       0.237  25.094  -3.936 -0.35  1.82    -0.348 N 
ATOM     50  CA  HIS A   6      -0.424  25.608  -5.109 -0.14  1.91    -0.135 C 
ATOM     51  C   HIS A   6       0.068  26.970  -5.475  0.73  1.91     0.734 C 
ATOM     52  O   HIS A   6       0.415  27.225  -6.628 -0.59  1.66    -0.589 OA
ATOM     53  CG  HIS A   6      -2.619  26.139  -6.271 -0.00  1.91    -0.001 A 
ATOM     54  CB  HIS A   6      -1.957  25.688  -5.002 -0.04  1.91    -0.041 C 
ATOM     55  HB2 HIS A   6      -2.313  24.781  -4.763  0.08  1.49     0.081 H 
ATOM     56  HB3 HIS A   6      -2.198  26.333  -4.273  0.08  1.49     0.081 H 
ATOM     57  H   HIS A   6      -0.174  24.994  -3.012  0.27  0.60     0.275 HD
ATOM     58  HA  HIS A   6      -0.238  24.976  -5.882  0.12  1.39     0.121 H 
ATOM     59  CD2 HIS A   6      -3.262  25.418  -7.231 -0.11  1.91    -0.114 A 
ATOM     60  HE2 HIS A   6      -4.223  25.994  -9.029  0.39  0.60     0.391 HD
ATOM     61  HD1 HIS A   6      -2.325  28.236  -6.222  0.39  0.60     0.387 HD
ATOM     62  HD2 HIS A   6      -3.381  24.410  -7.217  0.23  1.41     0.232 H 
ATOM     63  CE1 HIS A   6      -3.363  27.463  -7.855 -0.02  1.91    -0.017 A 
ATOM     64  ND1 HIS A   6      -2.687  27.453  -6.678 -0.15  1.82    -0.151 N 
ATOM     65  NE2 HIS A   6      -3.732  26.251  -8.230 -0.17  1.82    -0.172 N 
ATOM     66  HE1 HIS A   6      -3.556  28.312  -8.373  0.27  1.36     0.268 H 
ATOM     67  N   PHE A   7       0.132  27.877  -4.484 -0.42  1.82    -0.416 N 
ATOM     68  CA  PHE A   7       0.502  29.240  -4.730 -0.00  1.91    -0.002 C 
ATOM     69  C   PHE A   7       1.910  29.389  -4.274  0.60  1.91     0.597 C 
ATOM     70  O   PHE A   7       2.335  28.705  -3.344 -0.57  1.66    -0.568 OA
ATOM     71  CB  PHE A   7      -0.340  30.246  -3.926 -0.03  1.91    -0.034 C 
ATOM     72  CG  PHE A   7      -1.739  30.205  -4.440  0.01  1.91     0.012 A 
ATOM     73  CD1 PHE A   7      -2.639  29.286  -3.954 -0.13  1.91    -0.126 A 
ATOM     74  CD2 PHE A   7      -2.146  31.082  -5.418 -0.13  1.91    -0.126 A 
ATOM     75  CE1 PHE A   7      -3.930  29.248  -4.428 -0.17  1.91    -0.170 A 
ATOM     76  CE2 PHE A   7      -3.434  31.050  -5.896 -0.17  1.91    -0.170 A 
ATOM     77  CZ  PHE A   7      -4.330  30.133  -5.401 -0.11  1.91    -0.107 A 
ATOM     78  HZ  PHE A   7      -5.271  30.107  -5.744  0.13  1.46     0.130 H 
ATOM     79  HA  PHE A   7       0.492  29.375  -5.718  0.10  1.39     0.098 H 
ATOM     80  HE1 PHE A   7      -4.578  28.566  -4.058  0.14  1.46     0.143 H 
ATOM     81  HE2 PHE A   7      -3.719  31.708  -6.620  0.14  1.46     0.143 H 
ATOM     82  H   PHE A   7      -0.110  27.493  -3.547  0.27  0.60     0.272 HD
ATOM     83  HD2 PHE A   7      -1.495  31.753  -5.786  0.13  1.46     0.133 H 
ATOM     84  HD1 PHE A   7      -2.358  28.637  -3.248  0.13  1.46     0.133 H 
ATOM     85  HB3 PHE A   7       0.025  31.128  -4.084  0.03  1.49     0.029 H 
ATOM     86  HB2 PHE A   7      -0.338  29.958  -3.002  0.03  1.49     0.029 H 
ATOM     87  N   PHE A   8       2.690  30.262  -4.943 -0.42  1.82    -0.416 N 
ATOM     88  CA  PHE A   8       4.063  30.344  -4.548 -0.00  1.91    -0.002 C 
ATOM     89  C   PHE A   8       4.141  30.752  -3.107  0.60  1.91     0.597 C 
ATOM     90  O   PHE A   8       4.397  29.925  -2.233 -0.57  1.66    -0.568 OA
ATOM     91  CB  PHE A   8       4.819  31.399  -5.377 -0.03  1.91    -0.034 C 
ATOM     92  CG  PHE A   8       6.272  31.326  -5.062  0.01  1.91     0.012 A 
ATOM     93  CD1 PHE A   8       7.080  30.428  -5.721 -0.13  1.91    -0.126 A 
ATOM     94  CD2 PHE A   8       6.831  32.157  -4.119 -0.13  1.91    -0.126 A 
ATOM     95  CE1 PHE A   8       8.424  30.358  -5.441 -0.17  1.91    -0.170 A 
ATOM     96  CE2 PHE A   8       8.175  32.091  -3.836 -0.17  1.91    -0.170 A 
ATOM     97  CZ  PHE A   8       8.975  31.189  -4.495 -0.11  1.91    -0.107 A 
ATOM     98  HZ  PHE A   8       9.955  31.136  -4.291  0.13  1.46     0.130 H 
ATOM     99  HA  PHE A   8       4.450  29.418  -4.614  0.10  1.39     0.098 H 
ATOM    100  HE1 PHE A   8       9.003  29.690  -5.936  0.14  1.46     0.143 H 
ATOM    101  HE2 PHE A   8       8.572  32.712  -3.134  0.14  1.46     0.143 H 
ATOM    102  H   PHE A   8       2.237  30.789  -5.674  0.27  0.60     0.272 HD
ATOM    103  HD2 PHE A   8       6.253  32.819  -3.634  0.13  1.46     0.133 H 
ATOM    104  HD1 PHE A   8       6.689  29.820  -6.411  0.13  1.46     0.133 H 
ATOM    105  HB3 PHE A   8       4.484  32.273  -5.116  0.03  1.49     0.029 H 
ATOM    106  HB2 PHE A   8       4.689  31.183  -6.316  0.03  1.49     0.029 H 
ATOM    107  N   LYS A   9       3.903  32.047  -2.822 -0.35  1.82    -0.348 N 
ATOM    108  CA  LYS A   9       3.891  32.548  -1.475 -0.24  1.91    -0.240 C 
ATOM    109  C   LYS A   9       2.547  32.361  -0.847  0.73  1.91     0.734 C 
ATOM    110  O   LYS A   9       2.419  32.069   0.341 -0.59  1.66    -0.589 OA
ATOM    111  CB  LYS A   9       4.240  34.041  -1.380 -0.01  1.91    -0.009 C 
ATOM    112  CG  LYS A   9       4.395  34.501   0.069  0.02  1.91     0.019 C 
ATOM    113  CD  LYS A   9       5.549  33.798   0.784 -0.05  1.91    -0.048 C 
ATOM    114  CE  LYS A   9       5.738  34.231   2.238 -0.01  1.91    -0.014 C 
ATOM    115  NZ  LYS A   9       6.870  33.490   2.839 -0.39  1.82    -0.385 N 
ATOM    116  HA  LYS A   9       4.582  32.047  -0.931  0.14  1.39     0.143 H 
ATOM    117  HE2 LYS A   9       5.927  35.207   2.259  0.11  1.10     0.114 H 
ATOM    118  HE3 LYS A   9       4.903  34.033   2.742  0.11  1.10     0.114 H 
ATOM    119  HG2 LYS A   9       4.564  35.489   0.080  0.01  1.49     0.010 H 
ATOM    120  HG3 LYS A   9       3.545  34.309   0.564  0.01  1.49     0.010 H 
ATOM    121  HZ1 LYS A   9       7.669  33.554   2.239  0.34  0.60     0.340 HD
ATOM    122  HZ3 LYS A   9       7.093  33.884   3.732  0.34  0.60     0.340 HD
ATOM    123  HZ2 LYS A   9       6.619  32.528   2.954  0.34  0.60     0.340 HD
ATOM    124  HD3 LYS A   9       6.399  33.989   0.285  0.06  1.49     0.062 H 
ATOM    125  HD2 LYS A   9       5.380  32.809   0.769  0.06  1.49     0.062 H 
ATOM    126  H   LYS A   9       3.731  32.634  -3.668  0.27  0.60     0.275 HD
ATOM    127  HB3 LYS A   9       3.507  34.558  -1.796  0.04  1.49     0.036 H 
ATOM    128  HB2 LYS A   9       5.097  34.190  -1.849  0.04  1.49     0.036 H 
ATOM    129  N   ASN A  10       1.517  32.484  -1.701 -0.42  1.82    -0.416 N 
ATOM    130  CA  ASN A  10       0.132  32.664  -1.384  0.01  1.91     0.014 C 
ATOM    131  C   ASN A  10      -0.499  31.618  -0.539  0.60  1.91     0.597 C 
ATOM    132  O   ASN A  10       0.130  30.910   0.247 -0.57  1.66    -0.568 OA
ATOM    133  CB  ASN A  10      -0.753  32.867  -2.626 -0.20  1.91    -0.204 C 
ATOM    134  CG  ASN A  10      -0.427  34.239  -3.198  0.71  1.91     0.713 C 
ATOM    135  HA  ASN A  10       0.057  33.559  -0.869  0.10  1.39     0.105 H 
ATOM    136  H   ASN A  10       1.860  32.430  -2.728  0.27  0.60     0.272 HD
ATOM    137  HB3 ASN A  10      -1.685  32.853  -2.348  0.08  1.49     0.080 H 
ATOM    138  HB2 ASN A  10      -0.524  32.187  -3.284  0.08  1.49     0.080 H 
ATOM    139  OD1 ASN A  10       0.022  34.361  -4.335 -0.59  1.66    -0.593 OA
ATOM    140  ND2 ASN A  10      -0.657  35.305  -2.384 -0.92  1.82    -0.919 N 
ATOM    141 2HD2 ASN A  10      -0.468  36.215  -2.709  0.42  0.60     0.420 HD
ATOM    142 1HD2 ASN A  10      -1.014  35.143  -1.468  0.42  0.60     0.420 HD
ATOM    143  N   ILE A  11      -1.830  31.551  -0.715 -0.42  1.82    -0.416 N 
ATOM    144  CA  ILE A  11      -2.718  30.898   0.184 -0.06  1.91    -0.060 C 
ATOM    145  C   ILE A  11      -2.388  29.468   0.448  0.60  1.91     0.597 C 
ATOM    146  O   ILE A  11      -2.098  29.159   1.601 -0.57  1.66    -0.568 OA
ATOM    147  CB  ILE A  11      -4.131  30.984  -0.315  0.13  1.91     0.130 C 
ATOM    148  CG1 ILE A  11      -5.113  30.380   0.686 -0.04  1.91    -0.043 C 
ATOM    149  CG2 ILE A  11      -4.218  30.358  -1.710 -0.32  1.91    -0.320 C 
ATOM    150  CD1 ILE A  11      -6.550  30.596   0.231 -0.07  1.91    -0.066 C 
ATOM    151  HA  ILE A  11      -2.638  31.389   1.079  0.09  1.39     0.087 H 
ATOM    152 2HG2 ILE A  11      -5.140  30.495  -2.065  0.09  1.49     0.088 H 
ATOM    153 1HG2 ILE A  11      -3.551  30.803  -2.302  0.09  1.49     0.088 H 
ATOM    154  HB  ILE A  11      -4.376  31.950  -0.431  0.02  1.49     0.019 H 
ATOM    155 2HG1 ILE A  11      -4.942  29.413   0.757  0.02  1.49     0.024 H 
ATOM    156 3HG1 ILE A  11      -4.988  30.823   1.558  0.02  1.49     0.024 H 
ATOM    157 3HD1 ILE A  11      -6.681  30.159  -0.656  0.02  1.49     0.019 H 
ATOM    158  H   ILE A  11      -2.146  32.038  -1.601  0.27  0.60     0.272 HD
ATOM    159 2HD1 ILE A  11      -7.168  30.193   0.901  0.02  1.49     0.019 H 
ATOM    160 3HG2 ILE A  11      -4.018  29.384  -1.635  0.09  1.49     0.088 H 
ATOM    161 1HD1 ILE A  11      -6.725  31.575   0.155  0.02  1.49     0.019 H 
ATOM    162  N   VAL A  12      -2.341  28.584  -0.573 -0.42  1.82    -0.416 N 
ATOM    163  CA  VAL A  12      -2.135  27.184  -0.301 -0.09  1.91    -0.087 C 
ATOM    164  C   VAL A  12      -2.566  26.401  -1.495  0.60  1.91     0.597 C 
ATOM    165  O   VAL A  12      -1.734  26.008  -2.305 -0.57  1.66    -0.568 OA
ATOM    166  CB  VAL A  12      -2.837  26.640   0.926  0.30  1.91     0.298 C 
ATOM    167  CG1 VAL A  12      -4.298  27.127   0.995 -0.32  1.91    -0.319 C 
ATOM    168  CG2 VAL A  12      -2.668  25.111   0.922 -0.32  1.91    -0.319 C 
ATOM    169  HA  VAL A  12      -1.155  27.033  -0.156  0.10  1.39     0.097 H 
ATOM    170 1HG1 VAL A  12      -4.852  26.581   0.372  0.08  1.49     0.079 H 
ATOM    171 1HG2 VAL A  12      -3.471  24.697   1.345  0.08  1.49     0.079 H 
ATOM    172  HB  VAL A  12      -2.386  27.002   1.739 -0.03  1.49    -0.030 H 
ATOM    173 2HG1 VAL A  12      -4.631  27.020   1.929  0.08  1.49     0.079 H 
ATOM    174 3HG1 VAL A  12      -4.333  28.087   0.728  0.08  1.49     0.079 H 
ATOM    175  H   VAL A  12      -2.461  28.997  -1.505  0.27  0.60     0.272 HD
ATOM    176 3HG2 VAL A  12      -2.577  24.800  -0.020  0.08  1.49     0.079 H 
ATOM    177 2HG2 VAL A  12      -1.849  24.877   1.441  0.08  1.49     0.079 H 
ATOM    178  N   THR A  13      -3.876  26.093  -1.575 -0.42  1.82    -0.416 N 
ATOM    179  CA  THR A  13      -4.510  25.357  -2.625 -0.04  1.91    -0.039 C 
ATOM    180  C   THR A  13      -5.885  25.957  -2.763  0.60  1.91     0.597 C 
ATOM    181  O   THR A  13      -6.072  27.113  -2.383 -0.57  1.66    -0.568 OA
ATOM    182  CB  THR A  13      -4.608  23.892  -2.293  0.37  1.91     0.365 C 
ATOM    183  OG1 THR A  13      -5.344  23.705  -1.094 -0.68  1.72    -0.676 OA
ATOM    184  CG2 THR A  13      -3.187  23.322  -2.151 -0.24  1.91    -0.244 C 
ATOM    185  HA  THR A  13      -4.016  25.501  -3.472  0.10  1.39     0.101 H 
ATOM    186 2HG2 THR A  13      -2.645  23.577  -2.953  0.06  1.49     0.064 H 
ATOM    187 1HG2 THR A  13      -2.761  23.694  -1.327  0.06  1.49     0.064 H 
ATOM    188  H   THR A  13      -4.419  26.472  -0.730  0.27  0.60     0.272 HD
ATOM    189  HB  THR A  13      -5.106  23.404  -3.049  0.00  1.39     0.004 H 
ATOM    190 3HG2 THR A  13      -3.235  22.325  -2.082  0.06  1.49     0.064 H 
ATOM    191  HG1 THR A  13      -6.229  24.184  -1.140  0.41  0.00     0.410 HD
ATOM    192  N   PRO A  14      -6.864  25.270  -3.300 -0.25  1.82    -0.255 N 
ATOM    193  CA  PRO A  14      -8.146  25.914  -3.415 -0.03  1.91    -0.027 C 
ATOM    194  CD  PRO A  14      -6.638  24.411  -4.452  0.02  1.91     0.019 C 
ATOM    195  CB  PRO A  14      -8.948  25.120  -4.451 -0.01  1.91    -0.007 C 
ATOM    196  CG  PRO A  14      -8.046  23.928  -4.821  0.02  1.91     0.019 C 
ATOM    197  HG2 PRO A  14      -8.299  23.135  -4.286  0.02  1.49     0.021 H 
ATOM    198  HA  PRO A  14      -8.051  26.792  -3.964  0.06  1.39     0.064 H 
ATOM    199  HD3 PRO A  14      -6.233  24.919  -5.213  0.04  1.39     0.039 H 
ATOM    200  HD2 PRO A  14      -6.052  23.636  -4.220  0.04  1.39     0.039 H 
ATOM    201  HG3 PRO A  14      -8.113  23.742  -5.790  0.02  1.49     0.021 H 
ATOM    202  HB3 PRO A  14      -9.134  25.668  -5.264  0.03  1.49     0.025 H 
ATOM    203  HB2 PRO A  14      -9.808  24.786  -4.067  0.03  1.49     0.025 H 
ENDROOT
BRANCH   1 204
ATOM    204  CA  ASN A   2       7.920  26.613  -2.945  0.01  1.91     0.014 C 
ATOM    205  HA  ASN A   2       8.340  27.421  -3.354  0.10  1.39     0.105 H 
BRANCH 204 206
ATOM    206  N   ASN A   2       8.924  25.595  -2.868 -0.42  1.82    -0.416 N 
ATOM    207  H   ASN A   2       8.798  24.665  -2.447  0.27  0.60     0.272 HD
ATOM    208  C   GLU A   1      10.151  25.821  -3.373  0.56  1.91     0.562 C 
ATOM    209  O   GLU A   1      10.472  26.899  -3.871 -0.59  1.66    -0.589 OA
BRANCH 208 210
ATOM    210  CA  GLU A   1      11.123  24.694  -3.288  0.06  1.91     0.059 C 
ATOM    211  HA  GLU A   1      11.861  24.909  -2.637  0.12  1.10     0.120 H 
BRANCH 210 212
ATOM    212  CB  GLU A   1      11.756  24.492  -4.677  0.09  1.91     0.091 C 
ATOM    213  HB2 GLU A   1      12.032  25.371  -5.009 -0.02  1.49    -0.023 H 
ATOM    214  HB3 GLU A   1      12.506  23.870  -4.576 -0.02  1.49    -0.023 H 
BRANCH 212 215
ATOM    215  CG  GLU A   1      10.791  23.892  -5.705 -0.02  1.91    -0.024 C 
ATOM    216  HG2 GLU A   1       9.976  23.652  -5.251 -0.03  1.49    -0.032 H 
ATOM    217  HG3 GLU A   1      10.697  24.515  -6.434 -0.03  1.49    -0.032 H 
BRANCH 215 218
ATOM    218  CD  GLU A   1      11.410  22.615  -6.260  0.81  1.91     0.809 C 
ATOM    219  OE2 GLU A   1      11.341  22.417  -7.504 -0.82  1.66    -0.819 OA
ATOM    220  OE1 GLU A   1      11.960  21.821  -5.450 -0.82  1.66    -0.819 OA
ENDBRANCH 215 218
ENDBRANCH 212 215
ENDBRANCH 210 212
BRANCH 210 221
ATOM    221  N   GLU A   1      10.447  23.455  -2.841  0.00  1.82     0.002 N 
ATOM    222  H2  GLU A   1      11.118  22.851  -2.414  0.24  0.60     0.239 HD
ATOM    223  H3  GLU A   1       9.735  23.690  -2.181  0.24  0.60     0.239 HD
ATOM    224  H   GLU A   1      10.038  23.001  -3.632  0.24  0.60     0.239 HD
ENDBRANCH 210 221
ENDBRANCH 208 210
ENDBRANCH 204 206
BRANCH 204 225
ATOM    225  CB  ASN A   2       6.599  26.114  -3.551 -0.20  1.91    -0.204 C 
ATOM    226  HB3 ASN A   2       6.549  26.421  -4.484  0.08  1.49     0.080 H 
ATOM    227  HB2 ASN A   2       5.857  26.460  -3.006  0.08  1.49     0.080 H 
BRANCH 225 228
ATOM    228  CG  ASN A   2       6.563  24.598  -3.527  0.71  1.91     0.713 C 
ATOM    229  ND2 ASN A   2       5.928  24.038  -2.464 -0.92  1.82    -0.919 N 
ATOM    230 2HD2 ASN A   2       5.878  23.051  -2.393  0.42  0.60     0.420 HD
ATOM    231 1HD2 ASN A   2       5.523  24.629  -1.775  0.42  0.60     0.420 HD
ATOM    232  OD1 ASN A   2       7.093  23.930  -4.413 -0.59  1.66    -0.593 OA
ENDBRANCH 225 228
ENDBRANCH 204 225
ENDBRANCH   1 204
BRANCH 193 233
ATOM    233  C   PRO A  14      -8.875  26.166  -2.149  0.59  1.91     0.590 C 
ATOM    234  N   ARG A  15      -9.380  25.109  -1.491 -0.35  1.82    -0.348 N 
ATOM    235  H   ARG A  15      -9.224  24.204  -1.934  0.28  0.60     0.276 HD
ATOM    236  O   PRO A  14      -8.989  27.316  -1.751 -0.57  1.66    -0.575 OA
BRANCH 234 237
ATOM    237  CA  ARG A  15     -10.075  25.336  -0.261 -0.31  1.91    -0.307 C 
ATOM    238  HA  ARG A  15      -9.634  26.067   0.246  0.14  1.39     0.145 H 
BRANCH 237 239
ATOM    239  C   ARG A  15      -9.956  24.051   0.545  0.86  1.91     0.856 C 
ATOM    240  O   ARG A  15      -9.199  23.146   0.105 -0.83  1.66    -0.827 OA
ATOM    241  OXT ARG A  15     -10.623  23.956   1.610 -0.83  1.66    -0.827 OA
ENDBRANCH 237 239
BRANCH 237 242
ATOM    242  CB  ARG A  15     -11.572  25.640  -0.440 -0.04  1.91    -0.037 C 
ATOM    243  HB2 ARG A  15     -12.022  25.506   0.434  0.04  1.49     0.037 H 
ATOM    244  HB3 ARG A  15     -11.664  26.580  -0.742  0.04  1.49     0.037 H 
BRANCH 242 245
ATOM    245  CG  ARG A  15     -12.261  24.742  -1.469  0.07  1.91     0.074 C 
ATOM    246  HG3 ARG A  15     -12.820  24.060  -0.992  0.02  1.49     0.018 H 
ATOM    247  HG2 ARG A  15     -11.566  24.270  -2.015  0.02  1.49     0.018 H 
BRANCH 245 248
ATOM    248  CD  ARG A  15     -13.175  25.507  -2.431  0.11  1.91     0.111 C 
ATOM    249  HD3 ARG A  15     -12.647  26.191  -2.881  0.05  1.39     0.047 H 
ATOM    250  HD2 ARG A  15     -13.930  25.860  -1.927  0.05  1.39     0.047 H 
BRANCH 248 251
ATOM    251  NE  ARG A  15     -13.676  24.534  -3.443 -0.56  1.82    -0.556 N 
ATOM    252  HE  ARG A  15     -14.261  23.814  -3.172  0.35  0.60     0.348 HD
ATOM    253  CZ  ARG A  15     -13.310  24.661  -4.751  0.84  1.91     0.837 C 
ATOM    254  NH2 ARG A  15     -13.769  23.769  -5.677 -0.87  1.82    -0.874 N 
ATOM    255  NH1 ARG A  15     -12.484  25.679  -5.133 -0.87  1.82    -0.874 N 
ATOM    256 1HH2 ARG A  15     -14.353  23.024  -5.372  0.45  0.60     0.449 HD
ATOM    257 2HH2 ARG A  15     -13.515  23.881  -6.609  0.45  0.60     0.449 HD
ATOM    258 2HH1 ARG A  15     -12.252  25.754  -6.089  0.45  0.60     0.449 HD
ATOM    259 1HH1 ARG A  15     -12.144  26.305  -4.452  0.45  0.60     0.449 HD
ENDBRANCH 248 251
ENDBRANCH 245 248
ENDBRANCH 242 245
ENDBRANCH 237 242
ENDBRANCH 234 237
ENDBRANCH 193 233
TORSDOF 66
ENDMDL
