REMARK  16 active torsions:
REMARK  status: ('A' for Active; 'I' for Inactive)
REMARK    1  A    between atoms: N_1  and  CA_2 
REMARK    2  A    between atoms: CA_2  and  CB_5 
REMARK    3  A    between atoms: CA_2  and  C_3 
REMARK       I    between atoms: C_3  and  N_18 
REMARK    4  A    between atoms: CB_5  and  CG_6 
REMARK    5  A    between atoms: CG_6  and  CD_7 
REMARK    6  A    between atoms: N_18  and  CA_19 
REMARK    7  A    between atoms: CA_19  and  CB_22 
REMARK    8  A    between atoms: CA_19  and  C_20 
REMARK       I    between atoms: C_20  and  N_32 
REMARK    9  A    between atoms: CB_22  and  CG_23 
REMARK       I    between atoms: CG_23  and  ND2_29 
REMARK       I    between atoms: CA_33  and  C_34 
REMARK       I    between atoms: C_34  and  N_46 
REMARK       I    between atoms: N_46  and  CA_47 
REMARK       I    between atoms: CA_47  and  CB_50 
REMARK       I    between atoms: CA_47  and  C_48 
REMARK       I    between atoms: C_48  and  N_62 
REMARK       I    between atoms: CB_50  and  CG1_51 
REMARK       I    between atoms: CB_50  and  CG2_52 
REMARK       I    between atoms: N_62  and  CA_63 
REMARK       I    between atoms: CA_63  and  C_64 
REMARK       I    between atoms: CA_63  and  CB_66 
REMARK       I    between atoms: C_64  and  N_78 
REMARK       I    between atoms: CB_66  and  CG2_68 
REMARK       I    between atoms: CB_66  and  CG1_67 
REMARK       I    between atoms: N_78  and  CA_79 
REMARK       I    between atoms: CA_79  and  CB_83 
REMARK       I    between atoms: CA_79  and  C_80 
REMARK       I    between atoms: C_80  and  N_96 
REMARK       I    between atoms: CG_82  and  CB_83 
REMARK       I    between atoms: N_96  and  CA_97 
REMARK       I    between atoms: CA_97  and  CB_100 
REMARK       I    between atoms: CA_97  and  C_98 
REMARK       I    between atoms: C_98  and  N_116 
REMARK       I    between atoms: CB_100  and  CG_101 
REMARK       I    between atoms: N_116  and  CA_117 
REMARK       I    between atoms: CA_117  and  C_118 
REMARK       I    between atoms: CA_117  and  CB_120 
REMARK       I    between atoms: C_118  and  N_136 
REMARK       I    between atoms: CB_120  and  CG_121 
REMARK       I    between atoms: N_136  and  CA_137 
REMARK       I    between atoms: CA_137  and  C_138 
REMARK       I    between atoms: CA_137  and  CB_140 
REMARK       I    between atoms: C_138  and  N_158 
REMARK       I    between atoms: CB_140  and  CG_141 
REMARK       I    between atoms: CG_141  and  CD_142 
REMARK       I    between atoms: CD_142  and  CE_143 
REMARK       I    between atoms: CE_143  and  NZ_144 
REMARK       I    between atoms: N_158  and  CA_159 
REMARK       I    between atoms: CA_159  and  CB_162 
REMARK       I    between atoms: CA_159  and  C_160 
REMARK       I    between atoms: C_160  and  N_172 
REMARK       I    between atoms: CB_162  and  CG_163 
REMARK       I    between atoms: CG_163  and  ND2_169 
REMARK       I    between atoms: N_172  and  CA_173 
REMARK       I    between atoms: CA_173  and  C_174 
REMARK       I    between atoms: CA_173  and  CB_176 
REMARK       I    between atoms: C_174  and  N_191 
REMARK       I    between atoms: CB_176  and  CG2_178 
REMARK       I    between atoms: CB_176  and  CG1_177 
REMARK       I    between atoms: CG1_177  and  CD1_179 
REMARK       I    between atoms: N_191  and  CA_192 
REMARK       I    between atoms: CA_192  and  C_193 
REMARK       I    between atoms: CA_192  and  CB_195 
REMARK       I    between atoms: C_193  and  N_207 
REMARK       I    between atoms: CB_195  and  CG2_197 
REMARK       I    between atoms: CB_195  and  CG1_196 
REMARK       I    between atoms: N_207  and  CA_208 
REMARK       I    between atoms: CA_208  and  C_209 
REMARK       I    between atoms: CA_208  and  CB_211 
REMARK       I    between atoms: C_209  and  N_221 
REMARK       I    between atoms: CB_211  and  OG1_212 
REMARK       I    between atoms: CB_211  and  CG2_213 
REMARK   10  A    between atoms: CA_222  and  C_223 
REMARK       I    between atoms: C_223  and  N_235 
REMARK   11  A    between atoms: N_235  and  CA_236 
REMARK   12  A    between atoms: CA_236  and  C_237 
REMARK   13  A    between atoms: CA_236  and  CB_239 
REMARK   14  A    between atoms: CB_239  and  CG_240 
REMARK   15  A    between atoms: CG_240  and  CD_241 
REMARK   16  A    between atoms: CD_241  and  NE_242 
REMARK       I    between atoms: NE_242  and  CZ_243 
REMARK       I    between atoms: CZ_243  and  NH1_244 
ROOT
ATOM      1  C   ASN A   2       4.735  28.384  -1.958  0.60  1.91     0.597 C 
ATOM      2  O   ASN A   2       5.060  27.539  -1.126 -0.57  1.66    -0.568 OA
ATOM      3  N   PRO A   3       4.195  29.513  -1.606 -0.25  1.82    -0.255 N 
ATOM      4  CA  PRO A   3       3.830  29.665  -0.235 -0.03  1.91    -0.027 C 
ATOM      5  C   PRO A   3       2.731  28.708   0.082  0.59  1.91     0.590 C 
ATOM      6  O   PRO A   3       2.832  28.006   1.087 -0.57  1.66    -0.575 OA
ATOM      7  CD  PRO A   3       4.560  30.779  -2.220  0.02  1.91     0.019 C 
ATOM      8  CB  PRO A   3       3.492  31.142  -0.057 -0.01  1.91    -0.007 C 
ATOM      9  CG  PRO A   3       4.384  31.831  -1.108  0.02  1.91     0.019 C 
ATOM     10  HG2 PRO A   3       3.930  32.641  -1.459  0.02  1.49     0.021 H 
ATOM     11  HA  PRO A   3       4.619  29.527   0.374  0.06  1.39     0.064 H 
ATOM     12  HD3 PRO A   3       5.514  30.771  -2.541  0.04  1.39     0.039 H 
ATOM     13  HD2 PRO A   3       3.963  30.996  -2.999  0.04  1.39     0.039 H 
ATOM     14  HG3 PRO A   3       5.260  32.067  -0.706  0.02  1.49     0.021 H 
ATOM     15  HB3 PRO A   3       3.730  31.465   0.849  0.03  1.49     0.025 H 
ATOM     16  HB2 PRO A   3       2.537  31.325  -0.256  0.03  1.49     0.025 H 
ATOM     17  N   VAL A   4       1.709  28.623  -0.798 -0.42  1.82    -0.416 N 
ATOM     18  CA  VAL A   4       0.590  27.753  -0.571 -0.09  1.91    -0.087 C 
ATOM     19  C   VAL A   4       0.357  27.019  -1.852  0.60  1.91     0.597 C 
ATOM     20  O   VAL A   4       0.718  27.497  -2.927 -0.57  1.66    -0.568 OA
ATOM     21  CB  VAL A   4      -0.673  28.483  -0.229  0.30  1.91     0.298 C 
ATOM     22  CG1 VAL A   4      -1.809  27.456  -0.082 -0.32  1.91    -0.319 C 
ATOM     23  CG2 VAL A   4      -0.424  29.322   1.035 -0.32  1.91    -0.319 C 
ATOM     24  HA  VAL A   4       0.839  27.093   0.131  0.10  1.39     0.097 H 
ATOM     25 1HG1 VAL A   4      -1.421  26.537  -0.095  0.08  1.49     0.079 H 
ATOM     26 1HG2 VAL A   4       0.103  30.131   0.786  0.08  1.49     0.079 H 
ATOM     27  HB  VAL A   4      -0.928  29.065  -0.989 -0.03  1.49    -0.030 H 
ATOM     28 2HG1 VAL A   4      -2.280  27.613   0.783  0.08  1.49     0.079 H 
ATOM     29 3HG1 VAL A   4      -2.447  27.565  -0.840  0.08  1.49     0.079 H 
ATOM     30  H   VAL A   4       1.820  29.237  -1.629  0.27  0.60     0.272 HD
ATOM     31 3HG2 VAL A   4      -1.303  29.591   1.421  0.08  1.49     0.079 H 
ATOM     32 2HG2 VAL A   4       0.085  28.771   1.692  0.08  1.49     0.079 H 
ATOM     33  N   VAL A   5      -0.237  25.815  -1.764 -0.42  1.82    -0.416 N 
ATOM     34  CA  VAL A   5      -0.389  24.997  -2.928 -0.09  1.91    -0.087 C 
ATOM     35  C   VAL A   5      -1.251  25.620  -3.998  0.60  1.91     0.597 C 
ATOM     36  O   VAL A   5      -0.754  25.910  -5.085 -0.57  1.66    -0.568 OA
ATOM     37  CB  VAL A   5      -0.933  23.636  -2.586  0.30  1.91     0.298 C 
ATOM     38  CG1 VAL A   5      -2.281  23.788  -1.856 -0.32  1.91    -0.319 C 
ATOM     39  CG2 VAL A   5      -1.008  22.806  -3.877 -0.32  1.91    -0.319 C 
ATOM     40  HA  VAL A   5       0.536  24.835  -3.330  0.10  1.39     0.097 H 
ATOM     41 1HG1 VAL A   5      -3.016  23.790  -2.529  0.08  1.49     0.079 H 
ATOM     42 1HG2 VAL A   5      -0.101  22.445  -4.082  0.08  1.49     0.079 H 
ATOM     43  HB  VAL A   5      -0.319  23.196  -1.940 -0.03  1.49    -0.030 H 
ATOM     44 2HG1 VAL A   5      -2.398  23.023  -1.227  0.08  1.49     0.079 H 
ATOM     45 3HG1 VAL A   5      -2.281  24.647  -1.350  0.08  1.49     0.079 H 
ATOM     46  H   VAL A   5      -0.553  25.563  -0.814  0.27  0.60     0.272 HD
ATOM     47 3HG2 VAL A   5      -1.652  22.057  -3.742  0.08  1.49     0.079 H 
ATOM     48 2HG2 VAL A   5      -1.318  23.394  -4.621  0.08  1.49     0.079 H 
ATOM     49  N   HIS A   6      -2.555  25.868  -3.741 -0.35  1.82    -0.348 N 
ATOM     50  CA  HIS A   6      -3.382  26.367  -4.811 -0.14  1.91    -0.135 C 
ATOM     51  C   HIS A   6      -3.071  27.791  -5.139  0.73  1.91     0.734 C 
ATOM     52  O   HIS A   6      -2.872  28.140  -6.302 -0.59  1.66    -0.589 OA
ATOM     53  CG  HIS A   6      -5.727  26.717  -5.721 -0.00  1.91    -0.001 A 
ATOM     54  CB  HIS A   6      -4.896  26.276  -4.552 -0.04  1.91    -0.041 C 
ATOM     55  HB2 HIS A   6      -5.131  25.325  -4.336  0.08  1.49     0.081 H 
ATOM     56  HB3 HIS A   6      -5.125  26.854  -3.765  0.08  1.49     0.081 H 
ATOM     57  H   HIS A   6      -2.857  25.678  -2.790  0.27  0.60     0.275 HD
ATOM     58  HA  HIS A   6      -3.213  25.799  -5.636  0.12  1.39     0.121 H 
ATOM     59  CD2 HIS A   6      -6.388  25.981  -6.657 -0.11  1.91    -0.114 A 
ATOM     60  HE2 HIS A   6      -7.582  26.541  -8.315  0.39  0.60     0.391 HD
ATOM     61  HD1 HIS A   6      -5.644  28.829  -5.573  0.39  0.60     0.387 HD
ATOM     62  HD2 HIS A   6      -6.402  24.967  -6.693  0.23  1.41     0.232 H 
ATOM     63  CE1 HIS A   6      -6.760  28.032  -7.142 -0.02  1.91    -0.017 A 
ATOM     64  ND1 HIS A   6      -5.970  28.035  -6.039 -0.15  1.82    -0.151 N 
ATOM     65  NE2 HIS A   6      -7.040  26.808  -7.553 -0.17  1.82    -0.172 N 
ATOM     66  HE1 HIS A   6      -7.090  28.881  -7.586  0.27  1.36     0.268 H 
ATOM     67  N   PHE A   7      -2.999  28.648  -4.105 -0.42  1.82    -0.416 N 
ATOM     68  CA  PHE A   7      -2.797  30.054  -4.302 -0.00  1.91    -0.002 C 
ATOM     69  C   PHE A   7      -1.372  30.330  -3.975  0.60  1.91     0.597 C 
ATOM     70  O   PHE A   7      -0.786  29.649  -3.134 -0.57  1.66    -0.568 OA
ATOM     71  CB  PHE A   7      -3.650  30.921  -3.360 -0.03  1.91    -0.034 C 
ATOM     72  CG  PHE A   7      -5.083  30.756  -3.738  0.01  1.91     0.012 A 
ATOM     73  CD1 PHE A   7      -5.830  29.722  -3.225 -0.13  1.91    -0.126 A 
ATOM     74  CD2 PHE A   7      -5.675  31.633  -4.617 -0.13  1.91    -0.126 A 
ATOM     75  CE1 PHE A   7      -7.152  29.570  -3.574 -0.17  1.91    -0.170 A 
ATOM     76  CE2 PHE A   7      -6.995  31.487  -4.970 -0.17  1.91    -0.170 A 
ATOM     77  CZ  PHE A   7      -7.737  30.455  -4.447 -0.11  1.91    -0.107 A 
ATOM     78  HZ  PHE A   7      -8.701  30.346  -4.699  0.13  1.46     0.130 H 
ATOM     79  HA  PHE A   7      -2.921  30.237  -5.274  0.10  1.39     0.098 H 
ATOM     80  HE1 PHE A   7      -7.686  28.804  -3.185  0.14  1.46     0.143 H 
ATOM     81  HE2 PHE A   7      -7.418  32.146  -5.621  0.14  1.46     0.143 H 
ATOM     82  H   PHE A   7      -3.103  28.193  -3.174  0.27  0.60     0.272 HD
ATOM     83  HD2 PHE A   7      -5.137  32.388  -5.004  0.13  1.46     0.133 H 
ATOM     84  HD1 PHE A   7      -5.413  29.072  -2.590  0.13  1.46     0.133 H 
ATOM     85  HB3 PHE A   7      -3.395  31.844  -3.498  0.03  1.49     0.029 H 
ATOM     86  HB2 PHE A   7      -3.524  30.589  -2.460  0.03  1.49     0.029 H 
ATOM     87  N   PHE A   8      -0.757  31.314  -4.662 -0.42  1.82    -0.416 N 
ATOM     88  CA  PHE A   8       0.633  31.523  -4.397 -0.00  1.91    -0.002 C 
ATOM     89  C   PHE A   8       0.817  31.863  -2.948  0.60  1.91     0.597 C 
ATOM     90  O   PHE A   8       1.244  31.026  -2.155 -0.57  1.66    -0.568 OA
ATOM     91  CB  PHE A   8       1.189  32.694  -5.229 -0.03  1.91    -0.034 C 
ATOM     92  CG  PHE A   8       2.667  32.762  -5.061  0.01  1.91     0.012 A 
ATOM     93  CD1 PHE A   8       3.490  31.990  -5.848 -0.13  1.91    -0.126 A 
ATOM     94  CD2 PHE A   8       3.232  33.599  -4.127 -0.13  1.91    -0.126 A 
ATOM     95  CE1 PHE A   8       4.856  32.051  -5.704 -0.17  1.91    -0.170 A 
ATOM     96  CE2 PHE A   8       4.597  33.663  -3.979 -0.17  1.91    -0.170 A 
ATOM     97  CZ  PHE A   8       5.413  32.887  -4.767 -0.11  1.91    -0.107 A 
ATOM     98  HZ  PHE A   8       6.409  32.929  -4.662  0.13  1.46     0.130 H 
ATOM     99  HA  PHE A   8       1.104  30.649  -4.556  0.10  1.39     0.098 H 
ATOM    100  HE1 PHE A   8       5.446  31.475  -6.292  0.14  1.46     0.143 H 
ATOM    101  HE2 PHE A   8       4.999  34.287  -3.282  0.14  1.46     0.143 H 
ATOM    102  H   PHE A   8      -1.334  31.826  -5.312  0.27  0.60     0.272 HD
ATOM    103  HD2 PHE A   8       2.642  34.169  -3.549  0.13  1.46     0.133 H 
ATOM    104  HD1 PHE A   8       3.095  31.379  -6.533  0.13  1.46     0.133 H 
ATOM    105  HB3 PHE A   8       0.795  33.512  -4.884  0.03  1.49     0.029 H 
ATOM    106  HB2 PHE A   8       0.986  32.513  -6.162  0.03  1.49     0.029 H 
ATOM    107  N   LYS A   9       0.478  33.109  -2.563 -0.35  1.82    -0.348 N 
ATOM    108  CA  LYS A   9       0.553  33.537  -1.193 -0.24  1.91    -0.240 C 
ATOM    109  C   LYS A   9      -0.693  33.175  -0.451  0.73  1.91     0.734 C 
ATOM    110  O   LYS A   9      -0.668  32.811   0.724 -0.59  1.66    -0.589 OA
ATOM    111  CB  LYS A   9       0.756  35.052  -1.041 -0.01  1.91    -0.009 C 
ATOM    112  CG  LYS A   9       1.011  35.452   0.412  0.02  1.91     0.019 C 
ATOM    113  CD  LYS A   9       2.298  34.842   0.968 -0.05  1.91    -0.048 C 
ATOM    114  CE  LYS A   9       2.590  35.218   2.421 -0.01  1.91    -0.014 C 
ATOM    115  NZ  LYS A   9       3.847  34.574   2.863 -0.39  1.82    -0.385 N 
ATOM    116  HA  LYS A   9       1.344  33.086  -0.750  0.14  1.39     0.143 H 
ATOM    117  HE2 LYS A   9       2.680  36.207   2.483  0.11  1.10     0.114 H 
ATOM    118  HE3 LYS A   9       1.835  34.906   2.990  0.11  1.10     0.114 H 
ATOM    119  HG2 LYS A   9       1.079  36.451   0.467  0.01  1.49     0.010 H 
ATOM    120  HG3 LYS A   9       0.240  35.145   0.974  0.01  1.49     0.010 H 
ATOM    121  HZ1 LYS A   9       4.570  34.754   2.194  0.34  0.60     0.340 HD
ATOM    122  HZ3 LYS A   9       4.119  34.944   3.753  0.34  0.60     0.340 HD
ATOM    123  HZ2 LYS A   9       3.708  33.586   2.943  0.34  0.60     0.340 HD
ATOM    124  HD3 LYS A   9       3.069  35.148   0.402  0.06  1.49     0.062 H 
ATOM    125  HD2 LYS A   9       2.230  33.842   0.909  0.06  1.49     0.062 H 
ATOM    126  H   LYS A   9       0.162  33.717  -3.351  0.27  0.60     0.275 HD
ATOM    127  HB3 LYS A   9      -0.064  35.508  -1.351  0.04  1.49     0.036 H 
ATOM    128  HB2 LYS A   9       1.541  35.316  -1.580  0.04  1.49     0.036 H 
ATOM    129  N   ASN A  10      -1.812  33.230  -1.192 -0.42  1.82    -0.416 N 
ATOM    130  CA  ASN A  10      -3.169  33.244  -0.732  0.01  1.91     0.014 C 
ATOM    131  C   ASN A  10      -3.600  32.095   0.104  0.60  1.91     0.597 C 
ATOM    132  O   ASN A  10      -2.825  31.419   0.781 -0.57  1.66    -0.568 OA
ATOM    133  CB  ASN A  10      -4.192  33.413  -1.868 -0.20  1.91    -0.204 C 
ATOM    134  CG  ASN A  10      -4.068  34.840  -2.384  0.71  1.91     0.713 C 
ATOM    135  HA  ASN A  10      -3.281  34.098  -0.159  0.10  1.39     0.105 H 
ATOM    136  H   ASN A  10      -1.573  33.265  -2.249  0.27  0.60     0.272 HD
ATOM    137  HB3 ASN A  10      -5.085  33.285  -1.503  0.08  1.49     0.080 H 
ATOM    138  HB2 ASN A  10      -3.964  32.796  -2.586  0.08  1.49     0.080 H 
ATOM    139  OD1 ASN A  10      -3.753  35.067  -3.550 -0.59  1.66    -0.593 OA
ATOM    140  ND2 ASN A  10      -4.321  35.832  -1.488 -0.92  1.82    -0.919 N 
ATOM    141 2HD2 ASN A  10      -4.260  36.772  -1.774  0.42  0.60     0.420 HD
ATOM    142 1HD2 ASN A  10      -4.564  35.586  -0.554  0.42  0.60     0.420 HD
ATOM    143  N   ILE A  11      -4.928  31.894   0.053 -0.42  1.82    -0.416 N 
ATOM    144  CA  ILE A  11      -5.649  31.105   0.992 -0.06  1.91    -0.060 C 
ATOM    145  C   ILE A  11      -5.149  29.707   1.135  0.60  1.91     0.597 C 
ATOM    146  O   ILE A  11      -4.713  29.373   2.234 -0.57  1.66    -0.568 OA
ATOM    147  CB  ILE A  11      -7.107  31.064   0.638  0.13  1.91     0.130 C 
ATOM    148  CG1 ILE A  11      -7.914  30.308   1.690 -0.04  1.91    -0.043 C 
ATOM    149  CG2 ILE A  11      -7.272  30.503  -0.778 -0.32  1.91    -0.320 C 
ATOM    150  CD1 ILE A  11      -9.405  30.391   1.390 -0.07  1.91    -0.066 C 
ATOM    151  HA  ILE A  11      -5.528  31.555   1.904  0.09  1.39     0.087 H 
ATOM    152 2HG2 ILE A  11      -8.234  30.558  -1.033  0.09  1.49     0.088 H 
ATOM    153 1HG2 ILE A  11      -6.718  31.047  -1.403  0.09  1.49     0.088 H 
ATOM    154  HB  ILE A  11      -7.459  32.002   0.606  0.02  1.49     0.019 H 
ATOM    155 2HG1 ILE A  11      -7.639  29.362   1.685  0.02  1.49     0.024 H 
ATOM    156 3HG1 ILE A  11      -7.746  30.717   2.572  0.02  1.49     0.024 H 
ATOM    157 3HD1 ILE A  11      -9.581  29.988   0.495  0.02  1.49     0.019 H 
ATOM    158  H   ILE A  11      -5.381  32.389  -0.766  0.27  0.60     0.272 HD
ATOM    159 2HD1 ILE A  11      -9.907  29.890   2.091  0.02  1.49     0.019 H 
ATOM    160 3HG2 ILE A  11      -6.967  29.554  -0.782  0.09  1.49     0.088 H 
ATOM    161 1HD1 ILE A  11      -9.685  31.348   1.392  0.02  1.49     0.019 H 
ATOM    162  N   VAL A  12      -5.117  28.886   0.062 -0.42  1.82    -0.416 N 
ATOM    163  CA  VAL A  12      -4.743  27.504   0.227 -0.09  1.91    -0.087 C 
ATOM    164  C   VAL A  12      -5.212  26.741  -0.966  0.60  1.91     0.597 C 
ATOM    165  O   VAL A  12      -4.432  26.481  -1.875 -0.57  1.66    -0.568 OA
ATOM    166  CB  VAL A  12      -5.257  26.826   1.480  0.30  1.91     0.298 C 
ATOM    167  CG1 VAL A  12      -6.745  27.149   1.720 -0.32  1.91    -0.319 C 
ATOM    168  CG2 VAL A  12      -4.934  25.327   1.367 -0.32  1.91    -0.319 C 
ATOM    169  HA  VAL A  12      -3.743  27.452   0.267  0.10  1.39     0.097 H 
ATOM    170 1HG1 VAL A  12      -7.301  26.579   1.121  0.08  1.49     0.079 H 
ATOM    171 1HG2 VAL A  12      -5.643  24.808   1.839  0.08  1.49     0.079 H 
ATOM    172  HB  VAL A  12      -4.764  27.193   2.267 -0.03  1.49    -0.030 H 
ATOM    173 2HG1 VAL A  12      -6.968  26.960   2.673  0.08  1.49     0.079 H 
ATOM    174 3HG1 VAL A  12      -6.905  28.112   1.517  0.08  1.49     0.079 H 
ATOM    175  H   VAL A  12      -5.373  29.330  -0.827  0.27  0.60     0.272 HD
ATOM    176 3HG2 VAL A  12      -4.909  25.075   0.403  0.08  1.49     0.079 H 
ATOM    177 2HG2 VAL A  12      -4.047  25.156   1.789  0.08  1.49     0.079 H 
ATOM    178  N   THR A  13      -6.485  26.298  -0.937 -0.42  1.82    -0.416 N 
ATOM    179  CA  THR A  13      -7.145  25.553  -1.964 -0.04  1.91    -0.039 C 
ATOM    180  C   THR A  13      -8.581  26.008  -1.932  0.60  1.91     0.597 C 
ATOM    181  O   THR A  13      -8.845  27.116  -1.466 -0.57  1.66    -0.568 OA
ATOM    182  CB  THR A  13      -7.059  24.071  -1.715  0.37  1.91     0.365 C 
ATOM    183  OG1 THR A  13      -7.645  23.745  -0.464 -0.68  1.72    -0.676 OA
ATOM    184  CG2 THR A  13      -5.580  23.650  -1.746 -0.24  1.91    -0.244 C 
ATOM    185  HA  THR A  13      -6.758  25.792  -2.845  0.10  1.39     0.101 H 
ATOM    186 2HG2 THR A  13      -5.152  24.002  -2.579  0.06  1.49     0.064 H 
ATOM    187 1HG2 THR A  13      -5.112  24.024  -0.945  0.06  1.49     0.064 H 
ATOM    188  H   THR A  13      -6.975  26.574  -0.022  0.27  0.60     0.272 HD
ATOM    189  HB  THR A  13      -7.579  23.571  -2.448  0.00  1.39     0.004 H 
ATOM    190 3HG2 THR A  13      -5.519  22.652  -1.734  0.06  1.49     0.064 H 
ATOM    191  HG1 THR A  13      -8.575  24.128  -0.395  0.41  0.00     0.410 HD
ATOM    192  N   PRO A  14      -9.535  25.248  -2.413 -0.25  1.82    -0.255 N 
ATOM    193  CA  PRO A  14     -10.880  25.755  -2.364 -0.03  1.91    -0.027 C 
ATOM    194  CD  PRO A  14      -9.341  24.478  -3.632  0.02  1.91     0.019 C 
ATOM    195  CB  PRO A  14     -11.699  24.933  -3.365 -0.01  1.91    -0.007 C 
ATOM    196  CG  PRO A  14     -10.723  23.865  -3.892  0.02  1.91     0.019 C 
ATOM    197  HG2 PRO A  14     -10.838  23.024  -3.385  0.02  1.49     0.021 H 
ATOM    198  HA  PRO A  14     -10.932  26.665  -2.865  0.06  1.39     0.064 H 
ATOM    199  HD3 PRO A  14      -9.070  25.064  -4.396  0.04  1.39     0.039 H 
ATOM    200  HD2 PRO A  14      -8.659  23.759  -3.506  0.04  1.39     0.039 H 
ATOM    201  HG3 PRO A  14     -10.870  23.723  -4.860  0.02  1.49     0.021 H 
ATOM    202  HB3 PRO A  14     -12.022  25.499  -4.121  0.03  1.49     0.025 H 
ATOM    203  HB2 PRO A  14     -12.477  24.490  -2.921  0.03  1.49     0.025 H 
ENDROOT
BRANCH   1 204
ATOM    204  CA  ASN A   2       4.994  28.152  -3.405  0.01  1.91     0.014 C 
ATOM    205  HA  ASN A   2       5.038  29.044  -3.851  0.10  1.39     0.105 H 
BRANCH 204 206
ATOM    206  N   ASN A   2       6.292  27.555  -3.503 -0.42  1.82    -0.416 N 
ATOM    207  H   ASN A   2       6.479  26.571  -3.740  0.27  0.60     0.272 HD
ATOM    208  C   GLU A   1       7.392  28.296  -3.276  0.56  1.91     0.562 C 
ATOM    209  O   GLU A   1       7.334  29.478  -2.940 -0.59  1.66    -0.589 OA
BRANCH 208 210
ATOM    210  CA  GLU A   1       8.704  27.607  -3.439  0.06  1.91     0.059 C 
ATOM    211  HA  GLU A   1       9.398  28.243  -3.796  0.12  1.10     0.120 H 
BRANCH 210 212
ATOM    212  CB  GLU A   1       8.531  26.467  -4.459  0.09  1.91     0.091 C 
ATOM    213  HB2 GLU A   1       9.406  26.046  -4.587 -0.02  1.49    -0.023 H 
ATOM    214  HB3 GLU A   1       7.859  25.849  -4.105 -0.02  1.49    -0.023 H 
BRANCH 212 215
ATOM    215  CG  GLU A   1       8.043  26.945  -5.831 -0.02  1.91    -0.024 C 
ATOM    216  HG2 GLU A   1       7.810  26.171  -6.356 -0.03  1.49    -0.032 H 
ATOM    217  HG3 GLU A   1       7.337  27.587  -5.696 -0.03  1.49    -0.032 H 
BRANCH 215 218
ATOM    218  CD  GLU A   1       9.193  27.657  -6.532  0.81  1.91     0.809 C 
ATOM    219  OE2 GLU A   1       8.971  28.166  -7.664 -0.82  1.66    -0.819 OA
ATOM    220  OE1 GLU A   1      10.308  27.703  -5.946 -0.82  1.66    -0.819 OA
ENDBRANCH 215 218
ENDBRANCH 212 215
ENDBRANCH 210 212
BRANCH 210 221
ATOM    221  N   GLU A   1       9.177  27.074  -2.141  0.00  1.82     0.002 N 
ATOM    222  H2  GLU A   1       9.715  27.775  -1.675  0.24  0.60     0.239 HD
ATOM    223  H3  GLU A   1       8.388  26.826  -1.581  0.24  0.60     0.239 HD
ATOM    224  H   GLU A   1       9.743  26.267  -2.304  0.24  0.60     0.239 HD
ENDBRANCH 210 221
ENDBRANCH 208 210
ENDBRANCH 204 206
BRANCH 204 225
ATOM    225  CB  ASN A   2       3.860  27.203  -3.822 -0.20  1.91    -0.204 C 
ATOM    226  HB3 ASN A   2       3.033  27.728  -3.914  0.08  1.49     0.080 H 
ATOM    227  HB2 ASN A   2       3.778  26.498  -3.141  0.08  1.49     0.080 H 
BRANCH 225 228
ATOM    228  CG  ASN A   2       4.189  26.563  -5.157  0.71  1.91     0.713 C 
ATOM    229  ND2 ASN A   2       3.498  25.431  -5.457 -0.92  1.82    -0.919 N 
ATOM    230 2HD2 ASN A   2       3.676  24.967  -6.314  0.42  0.60     0.420 HD
ATOM    231 1HD2 ASN A   2       2.825  25.089  -4.811  0.42  0.60     0.420 HD
ATOM    232  OD1 ASN A   2       5.042  27.039  -5.904 -0.59  1.66    -0.593 OA
ENDBRANCH 225 228
ENDBRANCH 204 225
ENDBRANCH   1 204
BRANCH 193 233
ATOM    233  C   PRO A  14     -11.498  25.863  -1.021  0.59  1.91     0.590 C 
ATOM    234  N   ARG A  15     -12.394  26.843  -0.816 -0.35  1.82    -0.348 N 
ATOM    235  H   ARG A  15     -12.569  27.449  -1.618  0.28  0.60     0.276 HD
ATOM    236  O   PRO A  14     -11.175  25.063  -0.155 -0.57  1.66    -0.575 OA
BRANCH 234 237
ATOM    237  CA  ARG A  15     -13.009  26.951   0.471 -0.31  1.91    -0.307 C 
ATOM    238  HA  ARG A  15     -12.312  27.053   1.171  0.14  1.39     0.145 H 
BRANCH 237 239
ATOM    239  C   ARG A  15     -13.744  25.640   0.710  0.86  1.91     0.856 C 
ATOM    240  O   ARG A  15     -13.385  24.932   1.688 -0.83  1.66    -0.827 OA
ATOM    241  OXT ARG A  15     -14.672  25.328  -0.083 -0.83  1.66    -0.827 OA
ENDBRANCH 237 239
BRANCH 237 242
ATOM    242  CB  ARG A  15     -14.038  28.090   0.575 -0.04  1.91    -0.037 C 
ATOM    243  HB2 ARG A  15     -14.670  28.007  -0.184  0.04  1.49     0.037 H 
ATOM    244  HB3 ARG A  15     -14.514  28.000   1.440  0.04  1.49     0.037 H 
BRANCH 242 245
ATOM    245  CG  ARG A  15     -13.414  29.486   0.521  0.07  1.91     0.074 C 
ATOM    246  HG3 ARG A  15     -12.999  29.628  -0.381  0.02  1.49     0.018 H 
ATOM    247  HG2 ARG A  15     -12.702  29.558   1.223  0.02  1.49     0.018 H 
BRANCH 245 248
ATOM    248  CD  ARG A  15     -14.422  30.614   0.756  0.11  1.91     0.111 C 
ATOM    249  HD3 ARG A  15     -15.178  30.484   0.155  0.05  1.39     0.047 H 
ATOM    250  HD2 ARG A  15     -13.967  31.467   0.638  0.05  1.39     0.047 H 
BRANCH 248 251
ATOM    251  NE  ARG A  15     -14.896  30.506   2.165 -0.56  1.82    -0.556 N 
ATOM    252  HE  ARG A  15     -15.706  30.020   2.366  0.35  0.60     0.348 HD
ATOM    253  CZ  ARG A  15     -14.185  31.094   3.171  0.84  1.91     0.837 C 
ATOM    254  NH2 ARG A  15     -14.620  30.995   4.461 -0.87  1.82    -0.874 N 
ATOM    255  NH1 ARG A  15     -13.040  31.780   2.886 -0.87  1.82    -0.874 N 
ATOM    256 1HH2 ARG A  15     -15.468  30.507   4.642  0.45  0.60     0.449 HD
ATOM    257 2HH2 ARG A  15     -14.095  31.403   5.170  0.45  0.60     0.449 HD
ATOM    258 2HH1 ARG A  15     -12.539  32.178   3.637  0.45  0.60     0.449 HD
ATOM    259 1HH1 ARG A  15     -12.746  31.861   1.949  0.45  0.60     0.449 HD
ENDBRANCH 248 251
ENDBRANCH 245 248
ENDBRANCH 242 245
ENDBRANCH 237 242
ENDBRANCH 234 237
ENDBRANCH 193 233
TORSDOF 66
