MODEL 1
REMARK VINA RESULT:      -9.2      0.000      0.000
REMARK  11 active torsions:
REMARK  status: ('A' for Active; 'I' for Inactive)
REMARK    1  A    between atoms: N_1  and  CA_2 
REMARK    2  A    between atoms: CA_2  and  C_3 
REMARK    3  A    between atoms: CA_2  and  CB_5 
REMARK       I    between atoms: C_3  and  N_17 
REMARK    4  A    between atoms: CB_5  and  CG_6 
REMARK       I    between atoms: CG_6  and  ND2_14 
REMARK    5  A    between atoms: CA_18  and  C_19 
REMARK       I    between atoms: C_19  and  N_31 
REMARK       I    between atoms: N_31  and  CA_32 
REMARK       I    between atoms: CA_32  and  CB_35 
REMARK       I    between atoms: CA_32  and  C_33 
REMARK       I    between atoms: C_33  and  N_47 
REMARK       I    between atoms: CB_35  and  CG2_37 
REMARK       I    between atoms: CB_35  and  CG1_36 
REMARK       I    between atoms: N_47  and  CA_48 
REMARK       I    between atoms: CA_48  and  C_49 
REMARK       I    between atoms: CA_48  and  CB_51 
REMARK       I    between atoms: C_49  and  N_63 
REMARK       I    between atoms: CB_51  and  CG2_53 
REMARK       I    between atoms: CB_51  and  CG1_52 
REMARK       I    between atoms: N_63  and  CA_64 
REMARK       I    between atoms: CA_64  and  CB_68 
REMARK       I    between atoms: CA_64  and  C_65 
REMARK       I    between atoms: C_65  and  N_81 
REMARK       I    between atoms: CG_67  and  CB_68 
REMARK       I    between atoms: N_81  and  CA_82 
REMARK       I    between atoms: CA_82  and  CB_85 
REMARK       I    between atoms: CA_82  and  C_83 
REMARK       I    between atoms: C_83  and  N_101 
REMARK       I    between atoms: CB_85  and  CG_86 
REMARK       I    between atoms: N_101  and  CA_102 
REMARK       I    between atoms: CA_102  and  CB_105 
REMARK       I    between atoms: CA_102  and  C_103 
REMARK       I    between atoms: C_103  and  N_121 
REMARK       I    between atoms: CB_105  and  CG_106 
REMARK       I    between atoms: N_121  and  CA_122 
REMARK       I    between atoms: CA_122  and  CB_125 
REMARK       I    between atoms: CA_122  and  C_123 
REMARK       I    between atoms: C_123  and  N_143 
REMARK       I    between atoms: CB_125  and  CG_126 
REMARK       I    between atoms: CG_126  and  CD_127 
REMARK       I    between atoms: CD_127  and  CE_128 
REMARK       I    between atoms: CE_128  and  NZ_129 
REMARK       I    between atoms: N_143  and  CA_144 
REMARK       I    between atoms: CA_144  and  CB_147 
REMARK       I    between atoms: CA_144  and  C_145 
REMARK       I    between atoms: C_145  and  N_157 
REMARK       I    between atoms: CB_147  and  CG_148 
REMARK       I    between atoms: CG_148  and  ND2_154 
REMARK       I    between atoms: N_157  and  CA_158 
REMARK       I    between atoms: CA_158  and  CB_161 
REMARK       I    between atoms: CA_158  and  C_159 
REMARK       I    between atoms: C_159  and  N_176 
REMARK       I    between atoms: CB_161  and  CG1_162 
REMARK       I    between atoms: CB_161  and  CG2_163 
REMARK       I    between atoms: CG1_162  and  CD1_164 
REMARK       I    between atoms: N_176  and  CA_177 
REMARK       I    between atoms: CA_177  and  CB_180 
REMARK       I    between atoms: CA_177  and  C_178 
REMARK       I    between atoms: C_178  and  N_192 
REMARK       I    between atoms: CB_180  and  CG1_181 
REMARK       I    between atoms: CB_180  and  CG2_182 
REMARK    6  A    between atoms: N_192  and  CA_193 
REMARK    7  A    between atoms: CA_193  and  C_194 
REMARK    8  A    between atoms: CA_193  and  CB_196 
REMARK       I    between atoms: C_194  and  N_206 
REMARK    9  A    between atoms: CB_196  and  CG2_198 
REMARK   10  A    between atoms: CB_196  and  OG1_197 
REMARK   11  A    between atoms: CA_207  and  C_208 
ROOT
ATOM      1  C   PRO A   2       5.540  26.996   0.096  0.59  1.91     0.590 C 
ATOM      2  O   PRO A   2       5.593  26.091   0.922 -0.57  1.66    -0.575 OA
ATOM      3  N   VAL A   3       4.491  27.201  -0.725 -0.42  1.82    -0.416 N 
ATOM      4  CA  VAL A   3       3.320  26.391  -0.579 -0.09  1.91    -0.087 C 
ATOM      5  C   VAL A   3       3.111  25.660  -1.866  0.60  1.91     0.597 C 
ATOM      6  O   VAL A   3       3.587  26.079  -2.916 -0.57  1.66    -0.568 OA
ATOM      7  CB  VAL A   3       2.098  27.198  -0.276  0.30  1.91     0.298 C 
ATOM      8  CG1 VAL A   3       0.920  26.232  -0.137 -0.32  1.91    -0.319 C 
ATOM      9  CG2 VAL A   3       2.366  28.041   0.983 -0.32  1.91    -0.319 C 
ATOM     10  HA  VAL A   3       3.485  25.718   0.143  0.10  1.39     0.097 H 
ATOM     11 1HG1 VAL A   3       0.274  26.593   0.534  0.08  1.49     0.079 H 
ATOM     12 1HG2 VAL A   3       2.729  28.927   0.706  0.08  1.49     0.079 H 
ATOM     13  HB  VAL A   3       1.892  27.775  -1.052 -0.03  1.49    -0.030 H 
ATOM     14 2HG1 VAL A   3       0.466  26.134  -1.021  0.08  1.49     0.079 H 
ATOM     15 3HG1 VAL A   3       1.257  25.342   0.167  0.08  1.49     0.079 H 
ATOM     16  H   VAL A   3       4.620  27.948  -1.414  0.27  0.60     0.272 HD
ATOM     17 3HG2 VAL A   3       1.509  28.161   1.478  0.08  1.49     0.079 H 
ATOM     18 2HG2 VAL A   3       3.028  27.562   1.556  0.08  1.49     0.079 H 
ATOM     19  N   VAL A   4       2.405  24.510  -1.802 -0.42  1.82    -0.416 N 
ATOM     20  CA  VAL A   4       2.247  23.672  -2.952 -0.09  1.91    -0.087 C 
ATOM     21  C   VAL A   4       1.550  24.346  -4.104  0.60  1.91     0.597 C 
ATOM     22  O   VAL A   4       2.154  24.535  -5.156 -0.57  1.66    -0.568 OA
ATOM     23  CB  VAL A   4       1.500  22.408  -2.622  0.30  1.91     0.298 C 
ATOM     24  CG1 VAL A   4       0.167  22.769  -1.941 -0.32  1.91    -0.319 C 
ATOM     25  CG2 VAL A   4       1.330  21.596  -3.915 -0.32  1.91    -0.319 C 
ATOM     26  HA  VAL A   4       3.177  23.389  -3.273  0.10  1.39     0.097 H 
ATOM     27 1HG1 VAL A   4       0.309  23.552  -1.342  0.08  1.49     0.079 H 
ATOM     28 1HG2 VAL A   4       0.575  21.981  -4.441  0.08  1.49     0.079 H 
ATOM     29  HB  VAL A   4       2.020  21.892  -1.952 -0.03  1.49    -0.030 H 
ATOM     30 2HG1 VAL A   4      -0.506  22.995  -2.643  0.08  1.49     0.079 H 
ATOM     31 3HG1 VAL A   4      -0.148  21.986  -1.409  0.08  1.49     0.079 H 
ATOM     32  H   VAL A   4       2.008  24.313  -0.865  0.27  0.60     0.272 HD
ATOM     33 3HG2 VAL A   4       2.175  21.647  -4.442  0.08  1.49     0.079 H 
ATOM     34 2HG2 VAL A   4       1.133  20.647  -3.676  0.08  1.49     0.079 H 
ATOM     35  N   HIS A   5       0.268  24.741  -3.954 -0.35  1.82    -0.348 N 
ATOM     36  CA  HIS A   5      -0.421  25.291  -5.090 -0.14  1.91    -0.135 C 
ATOM     37  C   HIS A   5       0.102  26.640  -5.443  0.73  1.91     0.734 C 
ATOM     38  O   HIS A   5       0.474  26.891  -6.588 -0.59  1.66    -0.589 OA
ATOM     39  CG  HIS A   5      -2.578  26.053  -6.105 -0.00  1.91    -0.001 A 
ATOM     40  CB  HIS A   5      -1.933  25.465  -4.884 -0.04  1.91    -0.041 C 
ATOM     41  HB2 HIS A   5      -2.341  24.576  -4.707  0.08  1.49     0.081 H 
ATOM     42  HB3 HIS A   5      -2.088  26.078  -4.118  0.08  1.49     0.081 H 
ATOM     43  H   HIS A   5      -0.121  24.614  -3.022  0.27  0.60     0.275 HD
ATOM     44  HA  HIS A   5      -0.281  24.671  -5.881  0.12  1.39     0.121 H 
ATOM     45  CD2 HIS A   5      -3.196  25.445  -7.154 -0.11  1.91    -0.114 A 
ATOM     46  HE2 HIS A   5      -4.095  26.214  -8.912  0.39  0.60     0.391 HD
ATOM     47  HD1 HIS A   5      -2.266  28.131  -5.831  0.39  0.60     0.387 HD
ATOM     48  HD2 HIS A   5      -3.325  24.442  -7.248  0.23  1.41     0.232 H 
ATOM     49  CE1 HIS A   5      -3.259  27.543  -7.566 -0.02  1.91    -0.017 A 
ATOM     50  ND1 HIS A   5      -2.622  27.403  -6.377 -0.15  1.82    -0.151 N 
ATOM     51  NE2 HIS A   5      -3.627  26.381  -8.076 -0.17  1.82    -0.172 N 
ATOM     52  HE1 HIS A   5      -3.427  28.443  -7.999  0.27  1.36     0.268 H 
ATOM     53  N   PHE A   6       0.166  27.541  -4.444 -0.42  1.82    -0.416 N 
ATOM     54  CA  PHE A   6       0.549  28.895  -4.705 -0.00  1.91    -0.002 C 
ATOM     55  C   PHE A   6       1.942  29.082  -4.236  0.60  1.91     0.597 C 
ATOM     56  O   PHE A   6       2.413  28.374  -3.347 -0.57  1.66    -0.568 OA
ATOM     57  CB  PHE A   6      -0.316  29.943  -3.985 -0.03  1.91    -0.034 C 
ATOM     58  CG  PHE A   6      -1.652  29.959  -4.641  0.01  1.91     0.012 A 
ATOM     59  CD1 PHE A   6      -1.835  30.651  -5.816 -0.13  1.91    -0.126 A 
ATOM     60  CD2 PHE A   6      -2.720  29.294  -4.084 -0.13  1.91    -0.126 A 
ATOM     61  CE1 PHE A   6      -3.065  30.676  -6.431 -0.17  1.91    -0.170 A 
ATOM     62  CE2 PHE A   6      -3.951  29.315  -4.695 -0.17  1.91    -0.170 A 
ATOM     63  CZ  PHE A   6      -4.125  30.005  -5.871 -0.11  1.91    -0.107 A 
ATOM     64  HZ  PHE A   6      -5.022  30.021  -6.321  0.13  1.46     0.130 H 
ATOM     65  HA  PHE A   6       0.548  29.017  -5.700  0.10  1.39     0.098 H 
ATOM     66  HE1 PHE A   6      -3.181  31.189  -7.294  0.14  1.46     0.143 H 
ATOM     67  HE2 PHE A   6      -4.732  28.817  -4.272  0.14  1.46     0.143 H 
ATOM     68  H   PHE A   6      -0.079  27.161  -3.513  0.27  0.60     0.272 HD
ATOM     69  HD2 PHE A   6      -2.599  28.789  -3.226  0.13  1.46     0.133 H 
ATOM     70  HD1 PHE A   6      -1.069  31.142  -6.231  0.13  1.46     0.133 H 
ATOM     71  HB3 PHE A   6       0.104  30.804  -4.108  0.03  1.49     0.029 H 
ATOM     72  HB2 PHE A   6      -0.420  29.659  -3.069  0.03  1.49     0.029 H 
ATOM     73  N   PHE A   7       2.655  30.034  -4.864 -0.42  1.82    -0.416 N 
ATOM     74  CA  PHE A   7       4.029  30.176  -4.509 -0.00  1.91    -0.002 C 
ATOM     75  C   PHE A   7       4.142  30.487  -3.049  0.60  1.91     0.597 C 
ATOM     76  O   PHE A   7       4.428  29.607  -2.241 -0.57  1.66    -0.568 OA
ATOM     77  CB  PHE A   7       4.659  31.341  -5.297 -0.03  1.91    -0.034 C 
ATOM     78  CG  PHE A   7       6.125  31.424  -5.047  0.01  1.91     0.012 A 
ATOM     79  CD1 PHE A   7       7.001  30.674  -5.798 -0.13  1.91    -0.126 A 
ATOM     80  CD2 PHE A   7       6.623  32.264  -4.079 -0.13  1.91    -0.126 A 
ATOM     81  CE1 PHE A   7       8.355  30.752  -5.578 -0.17  1.91    -0.170 A 
ATOM     82  CE2 PHE A   7       7.978  32.343  -3.855 -0.17  1.91    -0.170 A 
ATOM     83  CZ  PHE A   7       8.847  31.586  -4.603 -0.11  1.91    -0.107 A 
ATOM     84  HZ  PHE A   7       9.834  31.640  -4.442  0.13  1.46     0.130 H 
ATOM     85  HA  PHE A   7       4.473  29.284  -4.655  0.10  1.39     0.098 H 
ATOM     86  HE1 PHE A   7       8.984  30.191  -6.137  0.14  1.46     0.143 H 
ATOM     87  HE2 PHE A   7       8.332  32.965  -3.131  0.14  1.46     0.143 H 
ATOM     88  H   PHE A   7       2.148  30.582  -5.552  0.27  0.60     0.272 HD
ATOM     89  HD2 PHE A   7       5.995  32.823  -3.533  0.13  1.46     0.133 H 
ATOM     90  HD1 PHE A   7       6.653  30.068  -6.512  0.13  1.46     0.133 H 
ATOM     91  HB3 PHE A   7       4.239  32.167  -4.986  0.03  1.49     0.029 H 
ATOM     92  HB2 PHE A   7       4.511  31.166  -6.248  0.03  1.49     0.029 H 
ATOM     93  N   LYS A   8       3.894  31.755  -2.671 -0.35  1.82    -0.348 N 
ATOM     94  CA  LYS A   8       3.992  32.155  -1.295 -0.24  1.91    -0.240 C 
ATOM     95  C   LYS A   8       2.709  31.931  -0.551  0.73  1.91     0.734 C 
ATOM     96  O   LYS A   8       2.695  31.493   0.598 -0.59  1.66    -0.589 OA
ATOM     97  CB  LYS A   8       4.369  33.641  -1.142 -0.01  1.91    -0.009 C 
ATOM     98  CG  LYS A   8       5.065  33.985   0.180  0.02  1.91     0.019 C 
ATOM     99  CD  LYS A   8       4.244  33.753   1.447 -0.05  1.91    -0.048 C 
ATOM    100  CE  LYS A   8       5.052  33.974   2.730 -0.01  1.91    -0.014 C 
ATOM    101  NZ  LYS A   8       5.618  35.343   2.753 -0.39  1.82    -0.385 N 
ATOM    102  HA  LYS A   8       4.730  31.618  -0.847  0.14  1.39     0.143 H 
ATOM    103  HE2 LYS A   8       4.448  33.848   3.513  0.11  1.10     0.114 H 
ATOM    104  HE3 LYS A   8       5.791  33.305   2.760  0.11  1.10     0.114 H 
ATOM    105  HG2 LYS A   8       5.919  33.436   0.246  0.01  1.49     0.010 H 
ATOM    106  HG3 LYS A   8       5.346  34.962   0.152  0.01  1.49     0.010 H 
ATOM    107  HZ1 LYS A   8       6.498  35.349   2.276  0.34  0.60     0.340 HD
ATOM    108  HZ3 LYS A   8       4.989  35.973   2.297  0.34  0.60     0.340 HD
ATOM    109  HZ2 LYS A   8       5.752  35.635   3.700  0.34  0.60     0.340 HD
ATOM    110  HD3 LYS A   8       3.908  32.813   1.447  0.06  1.49     0.062 H 
ATOM    111  HD2 LYS A   8       3.471  34.387   1.451  0.06  1.49     0.062 H 
ATOM    112  H   LYS A   8       3.634  32.387  -3.452  0.27  0.60     0.275 HD
ATOM    113  HB3 LYS A   8       3.531  34.181  -1.202  0.04  1.49     0.036 H 
ATOM    114  HB2 LYS A   8       4.983  33.884  -1.889  0.04  1.49     0.036 H 
ATOM    115  N   ASN A   9       1.593  32.196  -1.253 -0.42  1.82    -0.416 N 
ATOM    116  CA  ASN A   9       0.285  32.390  -0.696  0.01  1.91     0.014 C 
ATOM    117  C   ASN A   9      -0.442  31.185  -0.216  0.60  1.91     0.597 C 
ATOM    118  O   ASN A   9       0.105  30.324   0.465 -0.57  1.66    -0.568 OA
ATOM    119  CB  ASN A   9      -0.662  33.157  -1.636 -0.20  1.91    -0.204 C 
ATOM    120  CG  ASN A   9      -0.224  34.615  -1.647  0.71  1.91     0.713 C 
ATOM    121  HA  ASN A   9       0.400  33.022   0.119  0.10  1.39     0.105 H 
ATOM    122  H   ASN A   9       1.784  32.248  -2.303  0.27  0.60     0.272 HD
ATOM    123  HB3 ASN A   9      -1.567  33.102  -1.277  0.08  1.49     0.080 H 
ATOM    124  HB2 ASN A   9      -0.571  32.793  -2.535  0.08  1.49     0.080 H 
ATOM    125  OD1 ASN A   9       0.359  35.093  -2.619 -0.59  1.66    -0.593 OA
ATOM    126  ND2 ASN A   9      -0.507  35.343  -0.532 -0.92  1.82    -0.919 N 
ATOM    127 2HD2 ASN A   9      -0.249  36.291  -0.492  0.42  0.60     0.420 HD
ATOM    128 1HD2 ASN A   9      -0.974  34.897   0.226  0.42  0.60     0.420 HD
ATOM    129  N   ILE A  10      -1.730  31.113  -0.625 -0.42  1.82    -0.416 N 
ATOM    130  CA  ILE A  10      -2.714  30.367   0.098 -0.06  1.91    -0.060 C 
ATOM    131  C   ILE A  10      -2.326  28.967   0.421  0.60  1.91     0.597 C 
ATOM    132  O   ILE A  10      -2.041  28.709   1.589 -0.57  1.66    -0.568 OA
ATOM    133  CB  ILE A  10      -4.011  30.241  -0.652  0.13  1.91     0.130 C 
ATOM    134  CG1 ILE A  10      -4.601  31.619  -0.984 -0.04  1.91    -0.043 C 
ATOM    135  CG2 ILE A  10      -4.949  29.353   0.182 -0.32  1.91    -0.320 C 
ATOM    136  CD1 ILE A  10      -3.846  32.341  -2.097 -0.07  1.91    -0.066 C 
ATOM    137  HA  ILE A  10      -2.843  30.854   0.990  0.09  1.39     0.087 H 
ATOM    138 2HG2 ILE A  10      -5.789  29.210  -0.332  0.09  1.49     0.088 H 
ATOM    139 1HG2 ILE A  10      -4.493  28.484   0.352  0.09  1.49     0.088 H 
ATOM    140  HB  ILE A  10      -3.840  29.774  -1.522  0.02  1.49     0.019 H 
ATOM    141 2HG1 ILE A  10      -5.547  31.499  -1.264  0.02  1.49     0.024 H 
ATOM    142 3HG1 ILE A  10      -4.567  32.180  -0.164  0.02  1.49     0.024 H 
ATOM    143 3HD1 ILE A  10      -3.879  31.786  -2.925  0.02  1.49     0.019 H 
ATOM    144  H   ILE A  10      -1.916  31.646  -1.501  0.27  0.60     0.272 HD
ATOM    145 2HD1 ILE A  10      -4.278  33.224  -2.262  0.02  1.49     0.019 H 
ATOM    146 3HG2 ILE A  10      -5.142  29.818   1.041  0.09  1.49     0.088 H 
ATOM    147 1HD1 ILE A  10      -2.900  32.473  -1.814  0.02  1.49     0.019 H 
ATOM    148  N   VAL A  11      -2.207  28.067  -0.575 -0.42  1.82    -0.416 N 
ATOM    149  CA  VAL A  11      -1.975  26.676  -0.276 -0.09  1.91    -0.087 C 
ATOM    150  C   VAL A  11      -2.442  25.876  -1.441  0.60  1.91     0.597 C 
ATOM    151  O   VAL A  11      -1.643  25.287  -2.159 -0.57  1.66    -0.568 OA
ATOM    152  CB  VAL A  11      -2.624  26.135   0.985  0.30  1.91     0.298 C 
ATOM    153  CG1 VAL A  11      -4.109  26.533   1.073 -0.32  1.91    -0.319 C 
ATOM    154  CG2 VAL A  11      -2.369  24.620   1.028 -0.32  1.91    -0.319 C 
ATOM    155  HA  VAL A  11      -0.990  26.539  -0.166  0.10  1.39     0.097 H 
ATOM    156 1HG1 VAL A  11      -4.269  27.001   1.939  0.08  1.49     0.079 H 
ATOM    157 1HG2 VAL A  11      -1.797  24.412   1.817  0.08  1.49     0.079 H 
ATOM    158  HB  VAL A  11      -2.177  26.553   1.776 -0.03  1.49    -0.030 H 
ATOM    159 2HG1 VAL A  11      -4.328  27.140   0.313  0.08  1.49     0.079 H 
ATOM    160 3HG1 VAL A  11      -4.669  25.710   1.023  0.08  1.49     0.079 H 
ATOM    161  H   VAL A  11      -2.295  28.461  -1.523  0.27  0.60     0.272 HD
ATOM    162 3HG2 VAL A  11      -3.245  24.148   1.106  0.08  1.49     0.079 H 
ATOM    163 2HG2 VAL A  11      -1.906  24.347   0.188  0.08  1.49     0.079 H 
ATOM    164  N   THR A  12      -3.771  25.790  -1.610 -0.42  1.82    -0.416 N 
ATOM    165  H   THR A  12      -4.306  26.329  -0.863  0.27  0.60     0.272 HD
ENDROOT
BRANCH 164 166
ATOM    166  CA  THR A  12      -4.418  25.067  -2.658 -0.04  1.91    -0.039 C 
ATOM    167  HA  THR A  12      -3.969  25.265  -3.518  0.10  1.39     0.101 H 
BRANCH 166 168
ATOM    168  C   THR A  12      -5.812  25.615  -2.705  0.60  1.91     0.597 C 
ATOM    169  O   THR A  12      -6.044  26.765  -2.332 -0.57  1.66    -0.568 OA
ATOM    170  N   PRO A  13      -6.759  24.858  -3.171 -0.28  1.82    -0.280 N 
ATOM    171  CA  PRO A  13      -8.092  25.395  -3.150 -0.13  1.91    -0.134 C 
ATOM    172  CD  PRO A  13      -6.530  24.061  -4.364  0.04  1.91     0.043 C 
ATOM    173  HA  PRO A  13      -8.089  26.377  -3.377  0.08  1.39     0.078 H 
ATOM    174  CB  PRO A  13      -8.852  24.743  -4.317 -0.05  1.91    -0.054 C 
ATOM    175  HB2 PRO A  13      -9.728  24.374  -4.017  0.04  1.49     0.038 H 
ATOM    176  HB3 PRO A  13      -8.990  25.387  -5.063  0.04  1.49     0.038 H 
ATOM    177  CG  PRO A  13      -7.933  23.593  -4.782  0.05  1.91     0.047 C 
ATOM    178  HG2 PRO A  13      -8.180  22.757  -4.316  0.02  1.49     0.017 H 
ATOM    179  HG3 PRO A  13      -7.994  23.491  -5.763  0.02  1.49     0.017 H 
ATOM    180  HD3 PRO A  13      -6.113  24.605  -5.097  0.03  1.39     0.033 H 
ATOM    181  HD2 PRO A  13      -5.944  23.271  -4.171  0.03  1.39     0.033 H 
BRANCH 171 182
ATOM    182  C   PRO A  13      -8.702  25.145  -1.820  0.66  1.91     0.663 C 
ATOM    183  OXT PRO A  13      -8.594  23.992  -1.328 -0.77  1.66    -0.770 OA
ATOM    184  O   PRO A  13      -9.290  26.100  -1.250 -0.77  1.66    -0.770 OA
ENDBRANCH 171 182
ENDBRANCH 166 168
BRANCH 166 185
ATOM    185  CB  THR A  12      -4.451  23.594  -2.380  0.37  1.91     0.365 C 
ATOM    186  HB  THR A  12      -5.309  23.186  -2.789  0.00  1.39     0.004 H 
BRANCH 185 187
ATOM    187  CG2 THR A  12      -3.234  22.940  -3.052 -0.24  1.91    -0.244 C 
ATOM    188 2HG2 THR A  12      -2.783  23.607  -3.646  0.06  1.49     0.064 H 
ATOM    189 1HG2 THR A  12      -2.592  22.632  -2.349  0.06  1.49     0.064 H 
ATOM    190 3HG2 THR A  12      -3.535  22.157  -3.596  0.06  1.49     0.064 H 
ENDBRANCH 185 187
BRANCH 185 191
ATOM    191  OG1 THR A  12      -4.466  23.321  -0.987 -0.68  1.72    -0.676 OA
ATOM    192  HG1 THR A  12      -3.565  22.989  -0.679  0.41  0.00     0.410 HD
ENDBRANCH 185 191
ENDBRANCH 166 185
ENDBRANCH 164 166
BRANCH   1 193
ATOM    193  CA  PRO A   2       6.707  27.914  -0.041 -0.03  1.91    -0.027 C 
ATOM    194  CB  PRO A   2       6.422  29.395   0.187 -0.01  1.91    -0.007 C 
ATOM    195  CG  PRO A   2       7.439  30.084  -0.743  0.02  1.91     0.019 C 
ATOM    196  HB3 PRO A   2       6.592  29.660   1.126  0.03  1.49     0.025 H 
ATOM    197  HB2 PRO A   2       5.500  29.636  -0.087  0.03  1.49     0.025 H 
ATOM    198  HG2 PRO A   2       7.059  30.930  -1.091  0.02  1.49     0.021 H 
ATOM    199  HG3 PRO A   2       8.285  30.249  -0.255  0.02  1.49     0.021 H 
ATOM    200  CD  PRO A   2       7.654  29.073  -1.883  0.02  1.91     0.019 C 
ATOM    201  HD3 PRO A   2       8.632  29.013  -2.114  0.04  1.39     0.039 H 
ATOM    202  HD2 PRO A   2       7.148  29.361  -2.703  0.04  1.39     0.039 H 
ATOM    203  N   PRO A   2       7.152  27.809  -1.366 -0.25  1.82    -0.255 N 
ATOM    204  C   ASN A   1       7.698  26.661  -1.663  0.62  1.91     0.616 C 
ATOM    205  O   ASN A   1       7.853  25.801  -0.799 -0.57  1.66    -0.572 OA
ATOM    206  HA  PRO A   2       7.421  27.686   0.621  0.06  1.39     0.064 H 
BRANCH 204 207
ATOM    207  CA  ASN A   1       8.159  26.388  -3.054  0.04  1.91     0.037 C 
ATOM    208  HA  ASN A   1       8.664  27.184  -3.378  0.12  1.10     0.123 H 
BRANCH 207 209
ATOM    209  CB  ASN A   1       6.903  25.963  -3.838 -0.03  1.91    -0.028 C 
ATOM    210  HB3 ASN A   1       7.031  26.203  -4.784  0.05  1.49     0.051 H 
ATOM    211  HB2 ASN A   1       6.122  26.414  -3.444  0.05  1.49     0.051 H 
BRANCH 209 212
ATOM    212  CG  ASN A   1       6.704  24.456  -3.736  0.58  1.91     0.583 C 
ATOM    213  OD1 ASN A   1       7.128  23.692  -4.600 -0.57  1.66    -0.574 OA
ATOM    214  ND2 ASN A   1       6.026  24.014  -2.643 -0.86  1.82    -0.863 N 
ATOM    215 2HD2 ASN A   1       5.875  23.047  -2.525  0.41  0.60     0.410 HD
ATOM    216 1HD2 ASN A   1       5.695  24.677  -1.980  0.41  0.60     0.410 HD
ENDBRANCH 209 212
ENDBRANCH 207 209
BRANCH 207 217
ATOM    217  N   ASN A   1       9.130  25.274  -3.001  0.18  1.82     0.180 N 
ATOM    218  H   ASN A   1       8.949  24.718  -2.189  0.19  0.60     0.192 HD
ATOM    219  H3  ASN A   1      10.056  25.647  -2.955  0.19  0.60     0.192 HD
ATOM    220  H2  ASN A   1       9.032  24.712  -3.822  0.19  0.60     0.192 HD
ENDBRANCH 207 217
ENDBRANCH 204 207
ENDBRANCH   1 193
TORSDOF 55
ENDMDL
