REMARK  11 active torsions:
REMARK  status: ('A' for Active; 'I' for Inactive)
REMARK    1  A    between atoms: N_1  and  CA_2 
REMARK    2  A    between atoms: CA_2  and  C_3 
REMARK    3  A    between atoms: CA_2  and  CB_5 
REMARK       I    between atoms: C_3  and  N_17 
REMARK    4  A    between atoms: CB_5  and  CG_6 
REMARK       I    between atoms: CG_6  and  ND2_14 
REMARK    5  A    between atoms: CA_18  and  C_19 
REMARK       I    between atoms: C_19  and  N_31 
REMARK       I    between atoms: N_31  and  CA_32 
REMARK       I    between atoms: CA_32  and  CB_35 
REMARK       I    between atoms: CA_32  and  C_33 
REMARK       I    between atoms: C_33  and  N_47 
REMARK       I    between atoms: CB_35  and  CG2_37 
REMARK       I    between atoms: CB_35  and  CG1_36 
REMARK       I    between atoms: N_47  and  CA_48 
REMARK       I    between atoms: CA_48  and  C_49 
REMARK       I    between atoms: CA_48  and  CB_51 
REMARK       I    between atoms: C_49  and  N_63 
REMARK       I    between atoms: CB_51  and  CG2_53 
REMARK       I    between atoms: CB_51  and  CG1_52 
REMARK       I    between atoms: N_63  and  CA_64 
REMARK       I    between atoms: CA_64  and  CB_68 
REMARK       I    between atoms: CA_64  and  C_65 
REMARK       I    between atoms: C_65  and  N_81 
REMARK       I    between atoms: CG_67  and  CB_68 
REMARK       I    between atoms: N_81  and  CA_82 
REMARK       I    between atoms: CA_82  and  CB_85 
REMARK       I    between atoms: CA_82  and  C_83 
REMARK       I    between atoms: C_83  and  N_101 
REMARK       I    between atoms: CB_85  and  CG_86 
REMARK       I    between atoms: N_101  and  CA_102 
REMARK       I    between atoms: CA_102  and  CB_105 
REMARK       I    between atoms: CA_102  and  C_103 
REMARK       I    between atoms: C_103  and  N_121 
REMARK       I    between atoms: CB_105  and  CG_106 
REMARK       I    between atoms: N_121  and  CA_122 
REMARK       I    between atoms: CA_122  and  CB_125 
REMARK       I    between atoms: CA_122  and  C_123 
REMARK       I    between atoms: C_123  and  N_143 
REMARK       I    between atoms: CB_125  and  CG_126 
REMARK       I    between atoms: CG_126  and  CD_127 
REMARK       I    between atoms: CD_127  and  CE_128 
REMARK       I    between atoms: CE_128  and  NZ_129 
REMARK       I    between atoms: N_143  and  CA_144 
REMARK       I    between atoms: CA_144  and  CB_147 
REMARK       I    between atoms: CA_144  and  C_145 
REMARK       I    between atoms: C_145  and  N_157 
REMARK       I    between atoms: CB_147  and  CG_148 
REMARK       I    between atoms: CG_148  and  ND2_154 
REMARK       I    between atoms: N_157  and  CA_158 
REMARK       I    between atoms: CA_158  and  CB_161 
REMARK       I    between atoms: CA_158  and  C_159 
REMARK       I    between atoms: C_159  and  N_176 
REMARK       I    between atoms: CB_161  and  CG1_162 
REMARK       I    between atoms: CB_161  and  CG2_163 
REMARK       I    between atoms: CG1_162  and  CD1_164 
REMARK       I    between atoms: N_176  and  CA_177 
REMARK       I    between atoms: CA_177  and  CB_180 
REMARK       I    between atoms: CA_177  and  C_178 
REMARK       I    between atoms: C_178  and  N_192 
REMARK       I    between atoms: CB_180  and  CG1_181 
REMARK       I    between atoms: CB_180  and  CG2_182 
REMARK    6  A    between atoms: N_192  and  CA_193 
REMARK    7  A    between atoms: CA_193  and  C_194 
REMARK    8  A    between atoms: CA_193  and  CB_196 
REMARK       I    between atoms: C_194  and  N_206 
REMARK    9  A    between atoms: CB_196  and  CG2_198 
REMARK   10  A    between atoms: CB_196  and  OG1_197 
REMARK   11  A    between atoms: CA_207  and  C_208 
ROOT
ATOM      1  C   PRO A   2      -9.296  30.841   2.495  0.59  1.91     0.590 C 
ATOM      2  O   PRO A   2      -8.934  30.956   3.661 -0.57  1.66    -0.575 OA
ATOM      3  N   VAL A   3      -8.450  30.827   1.446 -0.42  1.82    -0.416 N 
ATOM      4  CA  VAL A   3      -7.039  30.849   1.685 -0.09  1.91    -0.087 C 
ATOM      5  C   VAL A   3      -6.489  32.079   1.039  0.60  1.91     0.597 C 
ATOM      6  O   VAL A   3      -7.087  32.634   0.122 -0.57  1.66    -0.568 OA
ATOM      7  CB  VAL A   3      -6.343  29.652   1.120  0.30  1.91     0.298 C 
ATOM      8  CG1 VAL A   3      -4.852  29.782   1.439 -0.32  1.91    -0.319 C 
ATOM      9  CG2 VAL A   3      -6.997  28.385   1.698 -0.32  1.91    -0.319 C 
ATOM     10  HA  VAL A   3      -6.883  30.913   2.671  0.10  1.39     0.097 H 
ATOM     11 1HG1 VAL A   3      -4.463  28.872   1.573  0.08  1.49     0.079 H 
ATOM     12 1HG2 VAL A   3      -7.728  28.092   1.086  0.08  1.49     0.079 H 
ATOM     13  HB  VAL A   3      -6.417  29.671   0.134 -0.03  1.49    -0.030 H 
ATOM     14 2HG1 VAL A   3      -4.390  30.236   0.679  0.08  1.49     0.079 H 
ATOM     15 3HG1 VAL A   3      -4.739  30.322   2.271  0.08  1.49     0.079 H 
ATOM     16  H   VAL A   3      -8.902  30.801   0.527  0.27  0.60     0.272 HD
ATOM     17 3HG2 VAL A   3      -6.305  27.671   1.772  0.08  1.49     0.079 H 
ATOM     18 2HG2 VAL A   3      -7.368  28.597   2.599  0.08  1.49     0.079 H 
ATOM     19  N   VAL A   4      -5.328  32.558   1.537 -0.42  1.82    -0.416 N 
ATOM     20  CA  VAL A   4      -4.776  33.794   1.072 -0.09  1.91    -0.087 C 
ATOM     21  C   VAL A   4      -4.454  33.801  -0.399  0.60  1.91     0.597 C 
ATOM     22  O   VAL A   4      -5.058  34.561  -1.152 -0.57  1.66    -0.568 OA
ATOM     23  CB  VAL A   4      -3.530  34.167   1.829  0.30  1.91     0.298 C 
ATOM     24  CG1 VAL A   4      -2.533  32.995   1.777 -0.32  1.91    -0.319 C 
ATOM     25  CG2 VAL A   4      -2.976  35.472   1.235 -0.32  1.91    -0.319 C 
ATOM     26  HA  VAL A   4      -5.459  34.536   1.245  0.10  1.39     0.097 H 
ATOM     27 1HG1 VAL A   4      -3.036  32.137   1.841  0.08  1.49     0.079 H 
ATOM     28 1HG2 VAL A   4      -2.480  35.259   0.396  0.08  1.49     0.079 H 
ATOM     29  HB  VAL A   4      -3.760  34.290   2.787 -0.03  1.49    -0.030 H 
ATOM     30 2HG1 VAL A   4      -2.032  33.032   0.915  0.08  1.49     0.079 H 
ATOM     31 3HG1 VAL A   4      -1.898  33.074   2.542  0.08  1.49     0.079 H 
ATOM     32  H   VAL A   4      -4.902  31.953   2.263  0.27  0.60     0.272 HD
ATOM     33 3HG2 VAL A   4      -3.737  36.085   1.036  0.08  1.49     0.079 H 
ATOM     34 2HG2 VAL A   4      -2.362  35.893   1.899  0.08  1.49     0.079 H 
ATOM     35  N   HIS A   5      -3.509  32.959  -0.868 -0.35  1.82    -0.348 N 
ATOM     36  CA  HIS A   5      -3.138  33.043  -2.254 -0.14  1.91    -0.135 C 
ATOM     37  C   HIS A   5      -4.225  32.542  -3.141  0.73  1.91     0.734 C 
ATOM     38  O   HIS A   5      -4.651  33.233  -4.066 -0.59  1.66    -0.589 OA
ATOM     39  CG  HIS A   5      -1.571  32.358  -4.082 -0.00  1.91    -0.001 A 
ATOM     40  CB  HIS A   5      -1.887  32.230  -2.620 -0.04  1.91    -0.041 C 
ATOM     41  HB2 HIS A   5      -1.114  32.571  -2.098  0.08  1.49     0.081 H 
ATOM     42  HB3 HIS A   5      -2.051  31.272  -2.415  0.08  1.49     0.081 H 
ATOM     43  H   HIS A   5      -3.123  32.312  -0.183  0.27  0.60     0.275 HD
ATOM     44  HA  HIS A   5      -2.957  34.016  -2.479  0.12  1.39     0.121 H 
ATOM     45  CD2 HIS A   5      -0.721  33.202  -4.728 -0.11  1.91    -0.114 A 
ATOM     46  HE2 HIS A   5      -0.255  33.451  -6.780  0.39  0.60     0.391 HD
ATOM     47  HD1 HIS A   5      -2.824  30.888  -4.952  0.39  0.60     0.387 HD
ATOM     48  HD2 HIS A   5      -0.136  33.896  -4.272  0.23  1.41     0.232 H 
ATOM     49  CE1 HIS A   5      -1.640  32.011  -6.248 -0.02  1.91    -0.017 A 
ATOM     50  ND1 HIS A   5      -2.159  31.595  -5.066 -0.15  1.82    -0.151 N 
ATOM     51  NE2 HIS A   5      -0.762  32.985  -6.093 -0.17  1.82    -0.172 N 
ATOM     52  HE1 HIS A   5      -1.906  31.608  -7.139  0.27  1.36     0.268 H 
ATOM     53  N   PHE A   6      -4.722  31.324  -2.855 -0.42  1.82    -0.416 N 
ATOM     54  CA  PHE A   6      -5.689  30.710  -3.712 -0.00  1.91    -0.002 C 
ATOM     55  C   PHE A   6      -7.016  30.807  -3.060  0.60  1.91     0.597 C 
ATOM     56  O   PHE A   6      -7.117  30.905  -1.838 -0.57  1.66    -0.568 OA
ATOM     57  CB  PHE A   6      -5.429  29.220  -3.989 -0.03  1.91    -0.034 C 
ATOM     58  CG  PHE A   6      -4.244  29.123  -4.885  0.01  1.91     0.012 A 
ATOM     59  CD1 PHE A   6      -4.385  29.324  -6.239 -0.13  1.91    -0.126 A 
ATOM     60  CD2 PHE A   6      -2.999  28.826  -4.380 -0.13  1.91    -0.126 A 
ATOM     61  CE1 PHE A   6      -3.299  29.236  -7.078 -0.17  1.91    -0.170 A 
ATOM     62  CE2 PHE A   6      -1.910  28.737  -5.214 -0.17  1.91    -0.170 A 
ATOM     63  CZ  PHE A   6      -2.059  28.943  -6.565 -0.11  1.91    -0.107 A 
ATOM     64  HZ  PHE A   6      -1.266  28.881  -7.177  0.13  1.46     0.130 H 
ATOM     65  HA  PHE A   6      -5.727  31.254  -4.554  0.10  1.39     0.098 H 
ATOM     66  HE1 PHE A   6      -3.421  29.387  -8.070  0.14  1.46     0.143 H 
ATOM     67  HE2 PHE A   6      -0.995  28.517  -4.826  0.14  1.46     0.143 H 
ATOM     68  H   PHE A   6      -4.344  30.904  -1.988  0.27  0.60     0.272 HD
ATOM     69  HD2 PHE A   6      -2.885  28.674  -3.395  0.13  1.46     0.133 H 
ATOM     70  HD1 PHE A   6      -5.284  29.538  -6.621  0.13  1.46     0.133 H 
ATOM     71  HB3 PHE A   6      -6.201  28.868  -4.451  0.03  1.49     0.029 H 
ATOM     72  HB2 PHE A   6      -5.220  28.797  -3.147  0.03  1.49     0.029 H 
ATOM     73  N   PHE A   7      -8.080  30.822  -3.882 -0.42  1.82    -0.416 N 
ATOM     74  CA  PHE A   7      -9.367  31.014  -3.298 -0.00  1.91    -0.002 C 
ATOM     75  C   PHE A   7      -9.639  29.925  -2.308  0.60  1.91     0.597 C 
ATOM     76  O   PHE A   7      -9.494  30.121  -1.104 -0.57  1.66    -0.568 OA
ATOM     77  CB  PHE A   7     -10.455  30.954  -4.388 -0.03  1.91    -0.034 C 
ATOM     78  CG  PHE A   7     -11.793  31.287  -3.826  0.01  1.91     0.012 A 
ATOM     79  CD1 PHE A   7     -12.202  32.598  -3.739 -0.13  1.91    -0.126 A 
ATOM     80  CD2 PHE A   7     -12.644  30.292  -3.407 -0.13  1.91    -0.126 A 
ATOM     81  CE1 PHE A   7     -13.439  32.913  -3.229 -0.17  1.91    -0.170 A 
ATOM     82  CE2 PHE A   7     -13.882  30.603  -2.895 -0.17  1.91    -0.170 A 
ATOM     83  CZ  PHE A   7     -14.282  31.914  -2.803 -0.11  1.91    -0.107 A 
ATOM     84  HZ  PHE A   7     -15.182  32.145  -2.429  0.13  1.46     0.130 H 
ATOM     85  HA  PHE A   7      -9.339  31.880  -2.783  0.10  1.39     0.098 H 
ATOM     86  HE1 PHE A   7     -13.722  33.882  -3.169  0.14  1.46     0.143 H 
ATOM     87  HE2 PHE A   7     -14.499  29.855  -2.583  0.14  1.46     0.143 H 
ATOM     88  H   PHE A   7      -7.876  30.693  -4.868  0.27  0.60     0.272 HD
ATOM     89  HD2 PHE A   7     -12.361  29.332  -3.476  0.13  1.46     0.133 H 
ATOM     90  HD1 PHE A   7     -11.598  33.331  -4.050  0.13  1.46     0.133 H 
ATOM     91  HB3 PHE A   7     -10.476  30.039  -4.731  0.03  1.49     0.029 H 
ATOM     92  HB2 PHE A   7     -10.225  31.617  -5.069  0.03  1.49     0.029 H 
ATOM     93  N   LYS A   8     -10.020  28.731  -2.800 -0.35  1.82    -0.348 N 
ATOM     94  CA  LYS A   8     -10.319  27.628  -1.929 -0.24  1.91    -0.240 C 
ATOM     95  C   LYS A   8      -9.094  26.833  -1.588  0.73  1.91     0.734 C 
ATOM     96  O   LYS A   8      -8.897  26.401  -0.453 -0.59  1.66    -0.589 OA
ATOM     97  CB  LYS A   8     -11.350  26.661  -2.541 -0.01  1.91    -0.009 C 
ATOM     98  CG  LYS A   8     -12.150  25.854  -1.512  0.02  1.91     0.019 C 
ATOM     99  CD  LYS A   8     -11.339  24.906  -0.630 -0.05  1.91    -0.048 C 
ATOM    100  CE  LYS A   8     -12.180  24.249   0.470 -0.01  1.91    -0.014 C 
ATOM    101  NZ  LYS A   8     -13.321  23.515  -0.124 -0.39  1.82    -0.385 N 
ATOM    102  HA  LYS A   8     -10.727  27.987  -1.070  0.14  1.39     0.143 H 
ATOM    103  HE2 LYS A   8     -11.601  23.616   0.977  0.11  1.10     0.114 H 
ATOM    104  HE3 LYS A   8     -12.520  24.962   1.079  0.11  1.10     0.114 H 
ATOM    105  HG2 LYS A   8     -12.649  26.505  -0.910  0.01  1.49     0.010 H 
ATOM    106  HG3 LYS A   8     -12.855  25.311  -2.005  0.01  1.49     0.010 H 
ATOM    107  HZ1 LYS A   8     -14.093  24.140  -0.249  0.34  0.60     0.340 HD
ATOM    108  HZ3 LYS A   8     -13.052  23.138  -1.011  0.34  0.60     0.340 HD
ATOM    109  HZ2 LYS A   8     -13.593  22.769   0.485  0.34  0.60     0.340 HD
ATOM    110  HD3 LYS A   8     -10.602  25.421  -0.195  0.06  1.49     0.062 H 
ATOM    111  HD2 LYS A   8     -10.953  24.184  -1.203  0.06  1.49     0.062 H 
ATOM    112  H   LYS A   8     -10.072  28.696  -3.835  0.27  0.60     0.275 HD
ATOM    113  HB3 LYS A   8     -10.862  26.019  -3.129  0.04  1.49     0.036 H 
ATOM    114  HB2 LYS A   8     -11.993  27.196  -3.084  0.04  1.49     0.036 H 
ATOM    115  N   ASN A   9      -8.219  26.678  -2.598 -0.42  1.82    -0.416 N 
ATOM    116  CA  ASN A   9      -7.165  25.706  -2.645  0.01  1.91     0.014 C 
ATOM    117  C   ASN A   9      -5.967  25.952  -1.799  0.60  1.91     0.597 C 
ATOM    118  O   ASN A   9      -6.059  26.313  -0.630 -0.57  1.66    -0.568 OA
ATOM    119  CB  ASN A   9      -6.670  25.422  -4.075 -0.20  1.91    -0.204 C 
ATOM    120  CG  ASN A   9      -7.740  24.601  -4.781  0.71  1.91     0.713 C 
ATOM    121  HA  ASN A   9      -7.577  24.805  -2.336  0.10  1.39     0.105 H 
ATOM    122  H   ASN A   9      -8.394  27.375  -3.388  0.27  0.60     0.272 HD
ATOM    123  HB3 ASN A   9      -5.851  24.896  -4.021  0.08  1.49     0.080 H 
ATOM    124  HB2 ASN A   9      -6.564  26.271  -4.541  0.08  1.49     0.080 H 
ATOM    125  OD1 ASN A   9      -8.461  25.106  -5.640 -0.59  1.66    -0.593 OA
ATOM    126  ND2 ASN A   9      -7.850  23.297  -4.406 -0.92  1.82    -0.919 N 
ATOM    127 2HD2 ASN A   9      -8.523  22.723  -4.836  0.42  0.60     0.420 HD
ATOM    128 1HD2 ASN A   9      -7.243  22.948  -3.698  0.42  0.60     0.420 HD
ATOM    129  N   ILE A  10      -4.788  25.778  -2.440 -0.42  1.82    -0.416 N 
ATOM    130  CA  ILE A  10      -3.582  25.462  -1.737 -0.06  1.91    -0.060 C 
ATOM    131  C   ILE A  10      -3.275  26.356  -0.587  0.60  1.91     0.597 C 
ATOM    132  O   ILE A  10      -3.428  25.902   0.545 -0.57  1.66    -0.568 OA
ATOM    133  CB  ILE A  10      -2.364  25.536  -2.615  0.13  1.91     0.130 C 
ATOM    134  CG1 ILE A  10      -2.482  24.587  -3.816 -0.04  1.91    -0.043 C 
ATOM    135  CG2 ILE A  10      -1.135  25.264  -1.732 -0.32  1.91    -0.320 C 
ATOM    136  CD1 ILE A  10      -3.467  25.079  -4.873 -0.07  1.91    -0.066 C 
ATOM    137  HA  ILE A  10      -3.712  24.520  -1.355  0.09  1.39     0.087 H 
ATOM    138 2HG2 ILE A  10      -0.316  25.372  -2.288  0.09  1.49     0.088 H 
ATOM    139 1HG2 ILE A  10      -1.134  25.919  -0.982  0.09  1.49     0.088 H 
ATOM    140  HB  ILE A  10      -2.281  26.466  -2.978  0.02  1.49     0.019 H 
ATOM    141 2HG1 ILE A  10      -1.585  24.491  -4.233  0.02  1.49     0.024 H 
ATOM    142 3HG1 ILE A  10      -2.789  23.701  -3.486  0.02  1.49     0.024 H 
ATOM    143 3HD1 ILE A  10      -3.163  25.966  -5.212  0.02  1.49     0.019 H 
ATOM    144  H   ILE A  10      -4.857  25.897  -3.473  0.27  0.60     0.272 HD
ATOM    145 2HD1 ILE A  10      -3.496  24.421  -5.621  0.02  1.49     0.019 H 
ATOM    146 3HG2 ILE A  10      -1.197  24.334  -1.382  0.09  1.49     0.088 H 
ATOM    147 1HD1 ILE A  10      -4.370  25.164  -4.460  0.02  1.49     0.019 H 
ATOM    148  N   VAL A  11      -2.941  27.641  -0.820 -0.42  1.82    -0.416 N 
ATOM    149  CA  VAL A  11      -2.500  28.486   0.262 -0.09  1.91    -0.087 C 
ATOM    150  C   VAL A  11      -1.692  29.590  -0.324  0.60  1.91     0.597 C 
ATOM    151  O   VAL A  11      -2.109  30.742  -0.323 -0.57  1.66    -0.568 OA
ATOM    152  CB  VAL A  11      -1.697  27.817   1.362  0.30  1.91     0.298 C 
ATOM    153  CG1 VAL A  11      -0.573  26.936   0.786 -0.32  1.91    -0.319 C 
ATOM    154  CG2 VAL A  11      -1.213  28.916   2.321 -0.32  1.91    -0.319 C 
ATOM    155  HA  VAL A  11      -3.308  28.878   0.703  0.10  1.39     0.097 H 
ATOM    156 1HG1 VAL A  11      -0.666  26.012   1.149  0.08  1.49     0.079 H 
ATOM    157 1HG2 VAL A  11      -1.635  28.774   3.213  0.08  1.49     0.079 H 
ATOM    158  HB  VAL A  11      -2.301  27.201   1.867 -0.03  1.49    -0.030 H 
ATOM    159 2HG1 VAL A  11      -0.650  26.920  -0.208  0.08  1.49     0.079 H 
ATOM    160 3HG1 VAL A  11       0.308  27.318   1.053  0.08  1.49     0.079 H 
ATOM    161  H   VAL A  11      -3.031  27.937  -1.802  0.27  0.60     0.272 HD
ATOM    162 3HG2 VAL A  11      -0.220  28.861   2.400  0.08  1.49     0.079 H 
ATOM    163 2HG2 VAL A  11      -1.479  29.804   1.954  0.08  1.49     0.079 H 
ATOM    164  N   THR A  12      -0.475  29.259  -0.782 -0.42  1.82    -0.416 N 
ATOM    165  H   THR A  12      -0.268  28.221  -0.658  0.27  0.60     0.272 HD
ENDROOT
BRANCH 164 166
ATOM    166  CA  THR A  12       0.454  30.169  -1.371 -0.04  1.91    -0.039 C 
ATOM    167  HA  THR A  12      -0.027  30.983  -1.667  0.10  1.39     0.101 H 
BRANCH 166 168
ATOM    168  C   THR A  12       0.985  29.457  -2.578  0.60  1.91     0.597 C 
ATOM    169  O   THR A  12       0.611  28.315  -2.844 -0.57  1.66    -0.568 OA
ATOM    170  N   PRO A  13       1.825  30.083  -3.346 -0.28  1.82    -0.280 N 
ATOM    171  CA  PRO A  13       2.356  29.350  -4.463 -0.13  1.91    -0.134 C 
ATOM    172  CD  PRO A  13       1.597  31.476  -3.689  0.04  1.91     0.043 C 
ATOM    173  HA  PRO A  13       1.649  28.765  -4.879  0.08  1.39     0.078 H 
ATOM    174  CB  PRO A  13       2.680  30.382  -5.556 -0.05  1.91    -0.054 C 
ATOM    175  HB2 PRO A  13       3.604  30.257  -5.909  0.04  1.49     0.038 H 
ATOM    176  HB3 PRO A  13       2.021  30.338  -6.301  0.04  1.49     0.038 H 
ATOM    177  CG  PRO A  13       2.574  31.747  -4.843  0.05  1.91     0.047 C 
ATOM    178  HG2 PRO A  13       3.461  32.016  -4.499  0.02  1.49     0.017 H 
ATOM    179  HG3 PRO A  13       2.208  32.422  -5.465  0.02  1.49     0.017 H 
ATOM    180  HD3 PRO A  13       0.652  31.631  -3.990  0.03  1.39     0.033 H 
ATOM    181  HD2 PRO A  13       1.796  32.082  -2.916  0.03  1.39     0.033 H 
BRANCH 171 182
ATOM    182  C   PRO A  13       3.528  28.556  -4.018  0.66  1.91     0.663 C 
ATOM    183  OXT PRO A  13       3.727  27.440  -4.564 -0.77  1.66    -0.770 OA
ATOM    184  O   PRO A  13       4.266  29.041  -3.122 -0.77  1.66    -0.770 OA
ENDBRANCH 171 182
ENDBRANCH 166 168
BRANCH 166 185
ATOM    185  CB  THR A  12       1.576  30.504  -0.434  0.37  1.91     0.365 C 
ATOM    186  HB  THR A  12       1.186  30.829   0.467  0.00  1.39     0.004 H 
BRANCH 185 187
ATOM    187  CG2 THR A  12       2.399  29.232  -0.178 -0.24  1.91    -0.244 C 
ATOM    188 2HG2 THR A  12       1.927  28.660   0.494  0.06  1.49     0.064 H 
ATOM    189 1HG2 THR A  12       2.503  28.725  -1.034  0.06  1.49     0.064 H 
ATOM    190 3HG2 THR A  12       3.301  29.485   0.173  0.06  1.49     0.064 H 
ENDBRANCH 185 187
BRANCH 185 191
ATOM    191  OG1 THR A  12       2.398  31.542  -0.947 -0.68  1.72    -0.676 OA
ATOM    192  HG1 THR A  12       2.261  31.647  -1.940  0.41  0.00     0.410 HD
ENDBRANCH 185 191
ENDBRANCH 166 185
ENDBRANCH 164 166
BRANCH   1 193
ATOM    193  CA  PRO A   2     -10.754  30.738   2.202 -0.03  1.91    -0.027 C 
ATOM    194  CB  PRO A   2     -11.361  29.344   2.314 -0.01  1.91    -0.007 C 
ATOM    195  CG  PRO A   2     -12.486  29.377   1.262  0.02  1.91     0.019 C 
ATOM    196  HB3 PRO A   2     -11.746  29.183   3.213  0.03  1.49     0.025 H 
ATOM    197  HB2 PRO A   2     -10.704  28.639   2.080  0.03  1.49     0.025 H 
ATOM    198  HG2 PRO A   2     -12.604  28.477   0.865  0.02  1.49     0.021 H 
ATOM    199  HG3 PRO A   2     -13.328  29.694   1.678  0.02  1.49     0.021 H 
ATOM    200  CD  PRO A   2     -11.987  30.378   0.206  0.02  1.91     0.019 C 
ATOM    201  HD3 PRO A   2     -12.738  30.983  -0.082  0.04  1.39     0.039 H 
ATOM    202  HD2 PRO A   2     -11.643  29.888  -0.602  0.04  1.39     0.039 H 
ATOM    203  N   PRO A   2     -10.927  31.125   0.865 -0.25  1.82    -0.255 N 
ATOM    204  C   ASN A   1     -10.713  32.392   0.637  0.62  1.91     0.616 C 
ATOM    205  O   ASN A   1     -10.455  33.158   1.563 -0.57  1.66    -0.572 OA
ATOM    206  HA  PRO A   2     -11.287  31.301   2.834  0.06  1.39     0.064 H 
BRANCH 204 207
ATOM    207  CA  ASN A   1     -10.798  32.929  -0.750  0.04  1.91     0.037 C 
ATOM    208  HA  ASN A   1     -10.934  32.163  -1.374  0.12  1.10     0.123 H 
BRANCH 207 209
ATOM    209  CB  ASN A   1      -9.543  33.800  -0.943 -0.03  1.91    -0.028 C 
ATOM    210  HB3 ASN A   1      -8.749  33.225  -0.858  0.05  1.49     0.051 H 
ATOM    211  HB2 ASN A   1      -9.555  34.518  -0.270  0.05  1.49     0.051 H 
BRANCH 209 212
ATOM    212  CG  ASN A   1      -9.547  34.429  -2.331  0.58  1.91     0.583 C 
ATOM    213  OD1 ASN A   1      -9.376  33.753  -3.343 -0.57  1.66    -0.574 OA
ATOM    214  ND2 ASN A   1      -9.743  35.774  -2.379 -0.86  1.82    -0.863 N 
ATOM    215 2HD2 ASN A   1      -9.760  36.230  -3.253  0.41  0.60     0.410 HD
ATOM    216 1HD2 ASN A   1      -9.865  36.274  -1.528  0.41  0.60     0.410 HD
ENDBRANCH 209 212
ENDBRANCH 207 209
BRANCH 207 217
ATOM    217  N   ASN A   1     -12.017  33.761  -0.842  0.18  1.82     0.180 N 
ATOM    218  H   ASN A   1     -12.482  33.569  -1.706  0.19  0.60     0.192 HD
ATOM    219  H3  ASN A   1     -11.760  34.726  -0.804  0.19  0.60     0.192 HD
ATOM    220  H2  ASN A   1     -12.623  33.543  -0.077  0.19  0.60     0.192 HD
ENDBRANCH 207 217
ENDBRANCH 204 207
ENDBRANCH   1 193
TORSDOF 55
