MODEL 1
REMARK VINA RESULT:      -6.6      0.000      0.000
REMARK  16 active torsions:
REMARK  status: ('A' for Active; 'I' for Inactive)
REMARK    1  A    between atoms: CA_2  and  C_3 
REMARK       I    between atoms: C_3  and  N_17 
REMARK    2  A    between atoms: N_17  and  CA_18 
REMARK    3  A    between atoms: CA_18  and  CB_21 
REMARK    4  A    between atoms: CA_18  and  C_19 
REMARK       I    between atoms: C_19  and  N_33 
REMARK    5  A    between atoms: CB_21  and  CG1_22 
REMARK    6  A    between atoms: CB_21  and  CG2_23 
REMARK       I    between atoms: N_33  and  CA_34 
REMARK       I    between atoms: CA_34  and  C_35 
REMARK       I    between atoms: CA_34  and  CB_37 
REMARK       I    between atoms: C_35  and  N_49 
REMARK       I    between atoms: CB_37  and  CG1_38 
REMARK       I    between atoms: CB_37  and  CG2_39 
REMARK       I    between atoms: N_49  and  CA_50 
REMARK       I    between atoms: CA_50  and  C_51 
REMARK       I    between atoms: CA_50  and  CB_54 
REMARK       I    between atoms: C_51  and  N_67 
REMARK       I    between atoms: CG_53  and  CB_54 
REMARK       I    between atoms: N_67  and  CA_68 
REMARK       I    between atoms: CA_68  and  CB_71 
REMARK       I    between atoms: CA_68  and  C_69 
REMARK       I    between atoms: C_69  and  N_87 
REMARK       I    between atoms: CB_71  and  CG_72 
REMARK       I    between atoms: N_87  and  CA_88 
REMARK       I    between atoms: CA_88  and  CB_91 
REMARK       I    between atoms: CA_88  and  C_89 
REMARK       I    between atoms: C_89  and  N_107 
REMARK       I    between atoms: CB_91  and  CG_92 
REMARK       I    between atoms: N_107  and  CA_108 
REMARK       I    between atoms: CA_108  and  C_109 
REMARK       I    between atoms: CA_108  and  CB_111 
REMARK       I    between atoms: C_109  and  N_129 
REMARK       I    between atoms: CB_111  and  CG_112 
REMARK       I    between atoms: CG_112  and  CD_113 
REMARK       I    between atoms: CD_113  and  CE_114 
REMARK       I    between atoms: CE_114  and  NZ_115 
REMARK       I    between atoms: N_129  and  CA_130 
REMARK       I    between atoms: CA_130  and  CB_133 
REMARK       I    between atoms: CA_130  and  C_131 
REMARK       I    between atoms: C_131  and  N_143 
REMARK       I    between atoms: CB_133  and  CG_134 
REMARK       I    between atoms: CG_134  and  ND2_140 
REMARK       I    between atoms: N_143  and  CA_144 
REMARK       I    between atoms: CA_144  and  C_145 
REMARK       I    between atoms: CA_144  and  CB_147 
REMARK       I    between atoms: C_145  and  N_162 
REMARK       I    between atoms: CB_147  and  CG1_148 
REMARK       I    between atoms: CB_147  and  CG2_149 
REMARK       I    between atoms: CG1_148  and  CD1_150 
REMARK    7  A    between atoms: N_162  and  CA_163 
REMARK    8  A    between atoms: CA_163  and  CB_166 
REMARK    9  A    between atoms: CA_163  and  C_164 
REMARK       I    between atoms: C_164  and  N_178 
REMARK   10  A    between atoms: CB_166  and  CG1_167 
REMARK   11  A    between atoms: CB_166  and  CG2_168 
REMARK   12  A    between atoms: N_178  and  CA_179 
REMARK   13  A    between atoms: CA_179  and  C_180 
REMARK   14  A    between atoms: CA_179  and  CB_182 
REMARK   15  A    between atoms: CB_182  and  CG2_184 
REMARK   16  A    between atoms: CB_182  and  OG1_183 
ROOT
ATOM      1  C   VAL A   2      -3.365  31.580   0.534  0.60  1.91     0.597 C 
ATOM      2  O   VAL A   2      -3.871  32.252  -0.345 -0.57  1.66    -0.568 OA
ATOM      3  N   VAL A   3      -2.166  31.891   1.056 -0.42  1.82    -0.416 N 
ATOM      4  CA  VAL A   3      -1.536  33.095   0.602 -0.09  1.91    -0.087 C 
ATOM      5  C   VAL A   3      -1.175  33.116  -0.868  0.60  1.91     0.597 C 
ATOM      6  O   VAL A   3      -1.738  33.919  -1.608 -0.57  1.66    -0.568 OA
ATOM      7  CB  VAL A   3      -0.341  33.480   1.429  0.30  1.91     0.298 C 
ATOM      8  CG1 VAL A   3      -0.822  33.928   2.822 -0.32  1.91    -0.319 C 
ATOM      9  CG2 VAL A   3       0.579  32.263   1.520 -0.32  1.91    -0.319 C 
ATOM     10  HA  VAL A   3      -2.177  33.879   0.774  0.10  1.39     0.097 H 
ATOM     11 1HG1 VAL A   3      -1.795  34.142   2.777  0.08  1.49     0.079 H 
ATOM     12 1HG2 VAL A   3       1.052  32.277   2.400  0.08  1.49     0.079 H 
ATOM     13  HB  VAL A   3       0.092  34.273   1.021 -0.03  1.49    -0.030 H 
ATOM     14 2HG1 VAL A   3      -0.666  33.189   3.473  0.08  1.49     0.079 H 
ATOM     15 3HG1 VAL A   3      -0.309  34.737   3.097  0.08  1.49     0.079 H 
ATOM     16  H   VAL A   3      -1.798  31.239   1.739  0.27  0.60     0.272 HD
ATOM     17 3HG2 VAL A   3       0.031  31.432   1.443  0.08  1.49     0.079 H 
ATOM     18 2HG2 VAL A   3       1.245  32.301   0.776  0.08  1.49     0.079 H 
ATOM     19  N   HIS A   4      -0.262  32.244  -1.354 -0.35  1.82    -0.348 N 
ATOM     20  CA  HIS A   4       0.139  32.354  -2.740 -0.14  1.91    -0.135 C 
ATOM     21  C   HIS A   4      -0.946  31.920  -3.678  0.73  1.91     0.734 C 
ATOM     22  O   HIS A   4      -1.260  32.619  -4.639 -0.59  1.66    -0.589 OA
ATOM     23  CG  HIS A   4       1.767  31.665  -4.538 -0.00  1.91    -0.001 A 
ATOM     24  CB  HIS A   4       1.383  31.523  -3.093 -0.04  1.91    -0.041 C 
ATOM     25  HB2 HIS A   4       2.148  31.828  -2.530  0.08  1.49     0.081 H 
ATOM     26  HB3 HIS A   4       1.192  30.561  -2.910  0.08  1.49     0.081 H 
ATOM     27  H   HIS A   4       0.082  31.557  -0.688  0.27  0.60     0.275 HD
ATOM     28  HA  HIS A   4       0.362  33.327  -2.930  0.12  1.39     0.121 H 
ATOM     29  CD2 HIS A   4       1.468  30.872  -5.603 -0.11  1.91    -0.114 A 
ATOM     30  HE2 HIS A   4       1.962  31.011  -7.658  0.39  0.60     0.391 HD
ATOM     31  HD1 HIS A   4       2.910  33.448  -4.549  0.39  0.60     0.387 HD
ATOM     32  HD2 HIS A   4       0.914  30.022  -5.556  0.23  1.41     0.232 H 
ATOM     33  CE1 HIS A   4       2.649  32.480  -6.376 -0.02  1.91    -0.017 A 
ATOM     34  ND1 HIS A   4       2.525  32.698  -5.041 -0.15  1.82    -0.151 N 
ATOM     35  NE2 HIS A   4       2.023  31.383  -6.763 -0.17  1.82    -0.172 N 
ATOM     36  HE1 HIS A   4       3.164  33.100  -6.989  0.27  1.36     0.268 H 
ATOM     37  N   PHE A   5      -1.558  30.750  -3.412 -0.42  1.82    -0.416 N 
ATOM     38  CA  PHE A   5      -2.539  30.200  -4.303 -0.00  1.91    -0.002 C 
ATOM     39  C   PHE A   5      -3.893  30.365  -3.706  0.60  1.91     0.597 C 
ATOM     40  O   PHE A   5      -4.043  30.491  -2.492 -0.57  1.66    -0.568 OA
ATOM     41  CB  PHE A   5      -2.358  28.700  -4.579 -0.03  1.91    -0.034 C 
ATOM     42  CG  PHE A   5      -1.224  28.449  -5.519  0.01  1.91     0.012 A 
ATOM     43  CD1 PHE A   5      -1.420  28.478  -6.882 -0.13  1.91    -0.126 A 
ATOM     44  CD2 PHE A   5       0.035  28.169  -5.047 -0.13  1.91    -0.126 A 
ATOM     45  CE1 PHE A   5      -0.381  28.239  -7.754 -0.17  1.91    -0.170 A 
ATOM     46  CE2 PHE A   5       1.078  27.928  -5.912 -0.17  1.91    -0.170 A 
ATOM     47  CZ  PHE A   5       0.874  27.962  -7.269 -0.11  1.91    -0.107 A 
ATOM     48  HZ  PHE A   5       1.629  27.788  -7.902  0.13  1.46     0.130 H 
ATOM     49  HA  PHE A   5      -2.515  30.749  -5.146  0.10  1.39     0.098 H 
ATOM     50  HE1 PHE A   5      -0.551  28.268  -8.751  0.14  1.46     0.143 H 
ATOM     51  HE2 PHE A   5       2.004  27.723  -5.537  0.14  1.46     0.143 H 
ATOM     52  H   PHE A   5      -1.254  30.307  -2.523  0.27  0.60     0.272 HD
ATOM     53  HD2 PHE A   5       0.199  28.139  -4.055  0.13  1.46     0.133 H 
ATOM     54  HD1 PHE A   5      -2.330  28.676  -7.250  0.13  1.46     0.133 H 
ATOM     55  HB3 PHE A   5      -3.183  28.372  -4.992  0.03  1.49     0.029 H 
ATOM     56  HB2 PHE A   5      -2.158  28.263  -3.726  0.03  1.49     0.029 H 
ATOM     57  N   PHE A   6      -4.923  30.409  -4.575 -0.42  1.82    -0.416 N 
ATOM     58  CA  PHE A   6      -6.228  30.681  -4.062 -0.00  1.91    -0.002 C 
ATOM     59  C   PHE A   6      -6.650  29.635  -3.074  0.60  1.91     0.597 C 
ATOM     60  O   PHE A   6      -6.519  29.839  -1.868 -0.57  1.66    -0.568 OA
ATOM     61  CB  PHE A   6      -7.259  30.721  -5.204 -0.03  1.91    -0.034 C 
ATOM     62  CG  PHE A   6      -8.616  31.053  -4.685  0.01  1.91     0.012 A 
ATOM     63  CD1 PHE A   6      -8.913  32.339  -4.302 -0.13  1.91    -0.126 A 
ATOM     64  CD2 PHE A   6      -9.601  30.094  -4.618 -0.13  1.91    -0.126 A 
ATOM     65  CE1 PHE A   6     -10.163  32.662  -3.832 -0.17  1.91    -0.170 A 
ATOM     66  CE2 PHE A   6     -10.856  30.411  -4.150 -0.17  1.91    -0.170 A 
ATOM     67  CZ  PHE A   6     -11.136  31.698  -3.755 -0.11  1.91    -0.107 A 
ATOM     68  HZ  PHE A   6     -12.050  31.934  -3.412  0.13  1.46     0.130 H 
ATOM     69  HA  PHE A   6      -6.178  31.558  -3.559  0.10  1.39     0.098 H 
ATOM     70  HE1 PHE A   6     -10.357  33.612  -3.545  0.14  1.46     0.143 H 
ATOM     71  HE2 PHE A   6     -11.571  29.689  -4.096  0.14  1.46     0.143 H 
ATOM     72  H   PHE A   6      -4.679  30.242  -5.549  0.27  0.60     0.272 HD
ATOM     73  HD2 PHE A   6      -9.403  29.156  -4.914  0.13  1.46     0.133 H 
ATOM     74  HD1 PHE A   6      -8.213  33.052  -4.365  0.13  1.46     0.133 H 
ATOM     75  HB3 PHE A   6      -7.287  29.831  -5.607  0.03  1.49     0.029 H 
ATOM     76  HB2 PHE A   6      -6.982  31.420  -5.828  0.03  1.49     0.029 H 
ATOM     77  N   LYS A   7      -7.144  28.468  -3.541 -0.35  1.82    -0.348 N 
ATOM     78  CA  LYS A   7      -7.555  27.480  -2.582 -0.24  1.91    -0.240 C 
ATOM     79  C   LYS A   7      -6.450  26.574  -2.147  0.73  1.91     0.734 C 
ATOM     80  O   LYS A   7      -6.287  26.278  -0.965 -0.59  1.66    -0.589 OA
ATOM     81  CB  LYS A   7      -8.728  26.585  -3.004 -0.01  1.91    -0.009 C 
ATOM     82  CG  LYS A   7      -9.196  25.760  -1.801  0.02  1.91     0.019 C 
ATOM     83  CD  LYS A   7     -10.594  25.156  -1.922 -0.05  1.91    -0.048 C 
ATOM     84  CE  LYS A   7     -11.055  24.475  -0.628 -0.01  1.91    -0.014 C 
ATOM     85  NZ  LYS A   7     -12.402  23.891  -0.811 -0.39  1.82    -0.385 N 
ATOM     86  HA  LYS A   7      -7.933  27.959  -1.760  0.14  1.39     0.143 H 
ATOM     87  HE2 LYS A   7     -10.404  23.756  -0.398  0.11  1.10     0.114 H 
ATOM     88  HE3 LYS A   7     -11.079  25.157   0.098  0.11  1.10     0.114 H 
ATOM     89  HG2 LYS A   7      -8.532  25.006  -1.649  0.01  1.49     0.010 H 
ATOM     90  HG3 LYS A   7      -9.170  26.350  -0.974  0.01  1.49     0.010 H 
ATOM     91  HZ1 LYS A   7     -12.437  22.987  -0.382  0.34  0.60     0.340 HD
ATOM     92  HZ3 LYS A   7     -13.086  24.487  -0.387  0.34  0.60     0.340 HD
ATOM     93  HZ2 LYS A   7     -12.599  23.802  -1.788  0.34  0.60     0.340 HD
ATOM     94  HD3 LYS A   7     -10.589  24.474  -2.650  0.06  1.49     0.062 H 
ATOM     95  HD2 LYS A   7     -11.241  25.883  -2.140  0.06  1.49     0.062 H 
ATOM     96  H   LYS A   7      -7.186  28.382  -4.550  0.27  0.60     0.275 HD
ATOM     97  HB3 LYS A   7      -8.418  25.971  -3.699  0.04  1.49     0.036 H 
ATOM     98  HB2 LYS A   7      -9.467  27.155  -3.293  0.04  1.49     0.036 H 
ATOM     99  N   ASN A   8      -5.628  26.151  -3.122 -0.42  1.82    -0.416 N 
ATOM    100  CA  ASN A   8      -4.714  25.064  -2.950  0.01  1.91     0.014 C 
ATOM    101  C   ASN A   8      -3.467  25.409  -2.238  0.60  1.91     0.597 C 
ATOM    102  O   ASN A   8      -3.502  26.079  -1.220 -0.57  1.66    -0.568 OA
ATOM    103  CB  ASN A   8      -4.344  24.323  -4.244 -0.20  1.91    -0.204 C 
ATOM    104  CG  ASN A   8      -5.582  23.555  -4.685  0.71  1.91     0.713 C 
ATOM    105  HA  ASN A   8      -5.201  24.350  -2.392  0.10  1.39     0.105 H 
ATOM    106  H   ASN A   8      -5.727  26.697  -4.013  0.27  0.60     0.272 HD
ATOM    107  HB3 ASN A   8      -3.633  23.691  -4.048  0.08  1.49     0.080 H 
ATOM    108  HB2 ASN A   8      -4.121  24.980  -4.926  0.08  1.49     0.080 H 
ATOM    109  OD1 ASN A   8      -6.429  24.068  -5.415 -0.59  1.66    -0.593 OA
ATOM    110  ND2 ASN A   8      -5.689  22.280  -4.222 -0.92  1.82    -0.919 N 
ATOM    111 2HD2 ASN A   8      -6.470  21.735  -4.482  0.42  0.60     0.420 HD
ATOM    112 1HD2 ASN A   8      -4.977  21.921  -3.628  0.42  0.60     0.420 HD
ATOM    113  N   ILE A   9      -2.324  25.077  -2.856 -0.42  1.82    -0.416 N 
ATOM    114  CA  ILE A   9      -1.108  24.772  -2.168 -0.06  1.91    -0.060 C 
ATOM    115  C   ILE A   9      -0.800  25.652  -0.997  0.60  1.91     0.597 C 
ATOM    116  O   ILE A   9      -1.120  25.225   0.110 -0.57  1.66    -0.568 OA
ATOM    117  CB  ILE A   9       0.039  24.925  -3.124  0.13  1.91     0.130 C 
ATOM    118  CG1 ILE A   9      -0.253  24.142  -4.408 -0.04  1.91    -0.043 C 
ATOM    119  CG2 ILE A   9       1.334  24.499  -2.416 -0.32  1.91    -0.320 C 
ATOM    120  CD1 ILE A   9       0.662  24.514  -5.575 -0.07  1.91    -0.066 C 
ATOM    121  HA  ILE A   9      -1.215  23.821  -1.801  0.09  1.39     0.087 H 
ATOM    122 2HG2 ILE A   9       2.098  24.642  -3.039  0.09  1.49     0.088 H 
ATOM    123 1HG2 ILE A   9       1.445  25.056  -1.597  0.09  1.49     0.088 H 
ATOM    124  HB  ILE A   9       0.128  25.883  -3.374  0.02  1.49     0.019 H 
ATOM    125 2HG1 ILE A   9      -0.148  23.169  -4.219  0.02  1.49     0.024 H 
ATOM    126 3HG1 ILE A   9      -1.196  24.320  -4.679  0.02  1.49     0.024 H 
ATOM    127 3HD1 ILE A   9       1.607  24.330  -5.317  0.02  1.49     0.019 H 
ATOM    128  H   ILE A   9      -2.416  25.063  -3.909  0.27  0.60     0.272 HD
ATOM    129 2HD1 ILE A   9       0.412  23.966  -6.369  0.02  1.49     0.019 H 
ATOM    130 3HG2 ILE A   9       1.260  23.536  -2.174  0.09  1.49     0.088 H 
ATOM    131 1HD1 ILE A   9       0.548  25.482  -5.779  0.02  1.49     0.019 H 
ATOM    132  N   VAL A  10      -0.342  26.909  -1.166 -0.42  1.82    -0.416 N 
ATOM    133  H   VAL A  10      -0.352  27.253  -2.127  0.27  0.60     0.272 HD
ENDROOT
BRANCH 132 134
ATOM    134  CA  VAL A  10       0.117  27.662  -0.012 -0.09  1.91    -0.087 C 
ATOM    135  HA  VAL A  10      -0.669  28.164   0.361  0.10  1.39     0.097 H 
BRANCH 134 136
ATOM    136  CB  VAL A  10       0.921  26.892   1.022  0.30  1.91     0.298 C 
ATOM    137  HB  VAL A  10       0.374  26.097   1.322 -0.03  1.49    -0.030 H 
BRANCH 136 138
ATOM    138  CG1 VAL A  10       2.245  26.321   0.488 -0.32  1.91    -0.319 C 
ATOM    139 3HG1 VAL A  10       2.160  25.331   0.397  0.08  1.49     0.079 H 
ATOM    140 1HG1 VAL A  10       2.440  26.727  -0.401  0.08  1.49     0.079 H 
ATOM    141 2HG1 VAL A  10       2.977  26.540   1.129  0.08  1.49     0.079 H 
ENDBRANCH 136 138
BRANCH 136 142
ATOM    142  CG2 VAL A  10       1.118  27.836   2.222 -0.32  1.91    -0.319 C 
ATOM    143 3HG2 VAL A  10       1.664  27.368   2.913  0.08  1.49     0.079 H 
ATOM    144 1HG2 VAL A  10       0.225  28.075   2.594  0.08  1.49     0.079 H 
ATOM    145 2HG2 VAL A  10       1.591  28.657   1.911  0.08  1.49     0.079 H 
ENDBRANCH 136 142
ENDBRANCH 134 136
BRANCH 134 146
ATOM    146  C   VAL A  10       1.149  28.639  -0.448  0.60  1.91     0.597 C 
ATOM    147  N   THR A  11       2.208  28.095  -1.082 -0.38  1.82    -0.382 N 
ATOM    148  H   THR A  11       2.179  27.047  -1.108  0.27  0.60     0.268 HD
ATOM    149  O   VAL A  10       1.061  29.837  -0.200 -0.57  1.66    -0.568 OA
BRANCH 147 150
ATOM    150  CA  THR A  11       3.254  28.883  -1.654 -0.24  1.91    -0.242 C 
ATOM    151  HA  THR A  11       2.954  29.830  -1.730  0.12  1.39     0.121 H 
BRANCH 150 152
ATOM    152  C   THR A  11       3.502  28.350  -3.053  0.78  1.91     0.781 C 
ATOM    153  O   THR A  11       3.204  27.149  -3.293 -0.80  1.66    -0.804 OA
ATOM    154  OXT THR A  11       3.998  29.139  -3.902 -0.80  1.66    -0.804 OA
ENDBRANCH 150 152
BRANCH 150 155
ATOM    155  CB  THR A  11       4.558  28.776  -0.910  0.30  1.91     0.302 C 
ATOM    156  HB  THR A  11       5.252  29.397  -1.345  0.01  1.39     0.008 H 
BRANCH 155 157
ATOM    157  CG2 THR A  11       4.333  29.181   0.557 -0.19  1.91    -0.185 C 
ATOM    158 2HG2 THR A  11       3.368  29.401   0.696  0.06  1.49     0.059 H 
ATOM    159 1HG2 THR A  11       4.594  28.424   1.155  0.06  1.49     0.059 H 
ATOM    160 3HG2 THR A  11       4.892  29.984   0.769  0.06  1.49     0.059 H 
ENDBRANCH 155 157
BRANCH 155 161
ATOM    161  OG1 THR A  11       5.056  27.448  -0.979 -0.65  1.72    -0.650 OA
ATOM    162  HG1 THR A  11       4.699  26.976  -1.794  0.41  0.00     0.412 HD
ENDBRANCH 155 161
ENDBRANCH 150 155
ENDBRANCH 147 150
ENDBRANCH 134 146
ENDBRANCH 132 134
BRANCH   1 163
ATOM    163  CA  VAL A   2      -4.136  30.452   1.101 -0.09  1.91    -0.087 C 
ATOM    164  HA  VAL A   2      -4.141  30.537   2.100  0.10  1.39     0.097 H 
BRANCH 163 165
ATOM    165  N   VAL A   2      -5.473  30.565   0.629 -0.42  1.82    -0.416 N 
ATOM    166  H   VAL A   2      -5.771  30.511  -0.354  0.27  0.60     0.272 HD
ATOM    167  C   PRO A   1      -6.474  30.761   1.508  0.53  1.91     0.526 C 
ATOM    168  O   PRO A   1      -6.300  30.833   2.724 -0.50  1.66    -0.500 OA
BRANCH 167 169
ATOM    169  CA  PRO A   1      -7.857  30.901   0.971  0.10  1.91     0.100 C 
ATOM    170  N   PRO A   1      -8.233  29.550   0.467 -0.20  1.82    -0.202 N 
ATOM    171  H2  PRO A   1      -8.197  29.533  -0.510  0.31  0.60     0.312 HD
ATOM    172  CD  PRO A   1      -9.491  29.090   1.151 -0.01  1.91    -0.012 C 
ATOM    173  H   PRO A   1      -7.642  28.869   0.875  0.31  0.60     0.312 HD
ATOM    174  CG  PRO A   1     -10.077  30.355   1.793 -0.12  1.91    -0.121 C 
ATOM    175  HD2 PRO A   1      -9.273  28.404   1.843  0.10  1.10     0.100 H 
ATOM    176  HD3 PRO A   1     -10.123  28.700   0.482  0.10  1.10     0.100 H 
ATOM    177  CB  PRO A   1      -8.864  31.250   2.064 -0.12  1.91    -0.115 C 
ATOM    178  HG3 PRO A   1     -10.703  30.809   1.169  0.10  1.49     0.100 H 
ATOM    179  HG2 PRO A   1     -10.537  30.135   2.647  0.10  1.49     0.100 H 
ATOM    180  HB3 PRO A   1      -9.133  32.213   2.017  0.10  1.49     0.100 H 
ATOM    181  HB2 PRO A   1      -8.494  31.056   2.975  0.10  1.49     0.100 H 
ATOM    182  HA  PRO A   1      -7.917  31.563   0.244  0.10  1.10     0.100 H 
ENDBRANCH 167 169
ENDBRANCH 163 165
BRANCH 163 183
ATOM    183  CB  VAL A   2      -3.484  29.123   0.836  0.30  1.91     0.298 C 
ATOM    184  HB  VAL A   2      -3.169  29.099  -0.096 -0.03  1.49    -0.030 H 
BRANCH 183 185
ATOM    185  CG1 VAL A   2      -2.221  29.055   1.715 -0.32  1.91    -0.319 C 
ATOM    186 1HG1 VAL A   2      -2.094  28.118   2.031  0.08  1.49     0.079 H 
ATOM    187 3HG1 VAL A   2      -2.336  29.665   2.495  0.08  1.49     0.079 H 
ATOM    188 2HG1 VAL A   2      -1.433  29.341   1.174  0.08  1.49     0.079 H 
ENDBRANCH 183 185
BRANCH 183 189
ATOM    189  CG2 VAL A   2      -4.476  27.988   1.126 -0.32  1.91    -0.319 C 
ATOM    190 1HG2 VAL A   2      -4.213  27.186   0.595  0.08  1.49     0.079 H 
ATOM    191 3HG2 VAL A   2      -4.449  27.776   2.101  0.08  1.49     0.079 H 
ATOM    192 2HG2 VAL A   2      -5.393  28.285   0.866  0.08  1.49     0.079 H 
ENDBRANCH 183 189
ENDBRANCH 163 183
ENDBRANCH   1 163
TORSDOF 50
ENDMDL
