REMARK  16 active torsions:
REMARK  status: ('A' for Active; 'I' for Inactive)
REMARK    1  A    between atoms: CA_2  and  C_3 
REMARK       I    between atoms: C_3  and  N_17 
REMARK    2  A    between atoms: N_17  and  CA_18 
REMARK    3  A    between atoms: CA_18  and  CB_21 
REMARK    4  A    between atoms: CA_18  and  C_19 
REMARK       I    between atoms: C_19  and  N_33 
REMARK    5  A    between atoms: CB_21  and  CG1_22 
REMARK    6  A    between atoms: CB_21  and  CG2_23 
REMARK       I    between atoms: N_33  and  CA_34 
REMARK       I    between atoms: CA_34  and  C_35 
REMARK       I    between atoms: CA_34  and  CB_37 
REMARK       I    between atoms: C_35  and  N_49 
REMARK       I    between atoms: CB_37  and  CG1_38 
REMARK       I    between atoms: CB_37  and  CG2_39 
REMARK       I    between atoms: N_49  and  CA_50 
REMARK       I    between atoms: CA_50  and  C_51 
REMARK       I    between atoms: CA_50  and  CB_54 
REMARK       I    between atoms: C_51  and  N_67 
REMARK       I    between atoms: CG_53  and  CB_54 
REMARK       I    between atoms: N_67  and  CA_68 
REMARK       I    between atoms: CA_68  and  CB_71 
REMARK       I    between atoms: CA_68  and  C_69 
REMARK       I    between atoms: C_69  and  N_87 
REMARK       I    between atoms: CB_71  and  CG_72 
REMARK       I    between atoms: N_87  and  CA_88 
REMARK       I    between atoms: CA_88  and  CB_91 
REMARK       I    between atoms: CA_88  and  C_89 
REMARK       I    between atoms: C_89  and  N_107 
REMARK       I    between atoms: CB_91  and  CG_92 
REMARK       I    between atoms: N_107  and  CA_108 
REMARK       I    between atoms: CA_108  and  C_109 
REMARK       I    between atoms: CA_108  and  CB_111 
REMARK       I    between atoms: C_109  and  N_129 
REMARK       I    between atoms: CB_111  and  CG_112 
REMARK       I    between atoms: CG_112  and  CD_113 
REMARK       I    between atoms: CD_113  and  CE_114 
REMARK       I    between atoms: CE_114  and  NZ_115 
REMARK       I    between atoms: N_129  and  CA_130 
REMARK       I    between atoms: CA_130  and  CB_133 
REMARK       I    between atoms: CA_130  and  C_131 
REMARK       I    between atoms: C_131  and  N_143 
REMARK       I    between atoms: CB_133  and  CG_134 
REMARK       I    between atoms: CG_134  and  ND2_140 
REMARK       I    between atoms: N_143  and  CA_144 
REMARK       I    between atoms: CA_144  and  CB_147 
REMARK       I    between atoms: CA_144  and  C_145 
REMARK       I    between atoms: C_145  and  N_162 
REMARK       I    between atoms: CB_147  and  CG2_149 
REMARK       I    between atoms: CB_147  and  CG1_148 
REMARK       I    between atoms: CG1_148  and  CD1_150 
REMARK    7  A    between atoms: N_162  and  CA_163 
REMARK    8  A    between atoms: CA_163  and  C_164 
REMARK    9  A    between atoms: CA_163  and  CB_166 
REMARK       I    between atoms: C_164  and  N_178 
REMARK   10  A    between atoms: CB_166  and  CG1_167 
REMARK   11  A    between atoms: CB_166  and  CG2_168 
REMARK   12  A    between atoms: N_178  and  CA_179 
REMARK   13  A    between atoms: CA_179  and  C_180 
REMARK   14  A    between atoms: CA_179  and  CB_182 
REMARK   15  A    between atoms: CB_182  and  OG1_183 
REMARK   16  A    between atoms: CB_182  and  CG2_184 
ROOT
ATOM      1  C   VAL A   2       1.248  26.708   1.207  0.60  1.91     0.597 C 
ATOM      2  O   VAL A   2       1.878  26.858   2.254 -0.57  1.66    -0.568 OA
ATOM      3  N   VAL A   3      -0.095  26.811   1.155 -0.42  1.82    -0.416 N 
ATOM      4  CA  VAL A   3      -0.868  27.145   2.317 -0.09  1.91    -0.087 C 
ATOM      5  C   VAL A   3      -2.210  26.516   2.045  0.60  1.91     0.597 C 
ATOM      6  O   VAL A   3      -2.275  25.439   1.454 -0.57  1.66    -0.568 OA
ATOM      7  CB  VAL A   3      -1.009  28.646   2.476  0.30  1.91     0.298 C 
ATOM      8  CG1 VAL A   3      -1.692  28.999   3.811 -0.32  1.91    -0.319 C 
ATOM      9  CG2 VAL A   3       0.382  29.284   2.328 -0.32  1.91    -0.319 C 
ATOM     10  HA  VAL A   3      -0.473  26.701   3.102  0.10  1.39     0.097 H 
ATOM     11 1HG1 VAL A   3      -1.000  29.051   4.526  0.08  1.49     0.079 H 
ATOM     12 1HG2 VAL A   3       0.492  29.984   3.030  0.08  1.49     0.079 H 
ATOM     13  HB  VAL A   3      -1.612  28.987   1.758 -0.03  1.49    -0.030 H 
ATOM     14 2HG1 VAL A   3      -2.151  29.879   3.718  0.08  1.49     0.079 H 
ATOM     15 3HG1 VAL A   3      -2.357  28.290   4.033  0.08  1.49     0.079 H 
ATOM     16  H   VAL A   3      -0.495  26.628   0.213  0.27  0.60     0.272 HD
ATOM     17 3HG2 VAL A   3       1.075  28.576   2.440  0.08  1.49     0.079 H 
ATOM     18 2HG2 VAL A   3       0.454  29.693   1.421  0.08  1.49     0.079 H 
ATOM     19  N   HIS A   4      -3.316  27.135   2.502 -0.35  1.82    -0.348 N 
ATOM     20  CA  HIS A   4      -4.617  26.598   2.236 -0.14  1.91    -0.135 C 
ATOM     21  C   HIS A   4      -4.937  26.898   0.812  0.73  1.91     0.734 C 
ATOM     22  O   HIS A   4      -5.337  28.005   0.456 -0.59  1.66    -0.589 OA
ATOM     23  CG  HIS A   4      -5.474  28.644   3.450 -0.00  1.91    -0.001 A 
ATOM     24  CB  HIS A   4      -5.718  27.198   3.125 -0.04  1.91    -0.041 C 
ATOM     25  HB2 HIS A   4      -6.595  27.124   2.651  0.08  1.49     0.081 H 
ATOM     26  HB3 HIS A   4      -5.759  26.684   3.982  0.08  1.49     0.081 H 
ATOM     27  H   HIS A   4      -3.128  27.998   3.039  0.27  0.60     0.275 HD
ATOM     28  HA  HIS A   4      -4.589  25.607   2.359  0.12  1.39     0.121 H 
ATOM     29  CD2 HIS A   4      -5.205  29.223   4.649 -0.11  1.91    -0.114 A 
ATOM     30  HE2 HIS A   4      -4.840  31.237   5.201  0.39  0.60     0.391 HD
ATOM     31  HD1 HIS A   4      -5.641  29.604   1.568  0.39  0.60     0.387 HD
ATOM     32  HD2 HIS A   4      -5.134  28.727   5.532  0.23  1.41     0.232 H 
ATOM     33  CE1 HIS A   4      -5.213  30.808   3.214 -0.02  1.91    -0.017 A 
ATOM     34  ND1 HIS A   4      -5.479  29.668   2.528 -0.15  1.82    -0.151 N 
ATOM     35  NE2 HIS A   4      -5.039  30.591   4.503 -0.17  1.82    -0.172 N 
ATOM     36  HE1 HIS A   4      -5.157  31.718   2.767  0.27  1.36     0.268 H 
ATOM     37  N   PHE A   5      -4.718  25.891  -0.049 -0.42  1.82    -0.416 N 
ATOM     38  CA  PHE A   5      -4.910  26.029  -1.455 -0.00  1.91    -0.002 C 
ATOM     39  C   PHE A   5      -6.374  26.148  -1.777  0.60  1.91     0.597 C 
ATOM     40  O   PHE A   5      -6.773  27.064  -2.495 -0.57  1.66    -0.568 OA
ATOM     41  CB  PHE A   5      -4.350  24.808  -2.204 -0.03  1.91    -0.034 C 
ATOM     42  CG  PHE A   5      -4.038  25.194  -3.607  0.01  1.91     0.012 A 
ATOM     43  CD1 PHE A   5      -5.010  25.232  -4.577 -0.13  1.91    -0.126 A 
ATOM     44  CD2 PHE A   5      -2.743  25.513  -3.947 -0.13  1.91    -0.126 A 
ATOM     45  CE1 PHE A   5      -4.692  25.587  -5.867 -0.17  1.91    -0.170 A 
ATOM     46  CE2 PHE A   5      -2.423  25.868  -5.236 -0.17  1.91    -0.170 A 
ATOM     47  CZ  PHE A   5      -3.399  25.907  -6.200 -0.11  1.91    -0.107 A 
ATOM     48  HZ  PHE A   5      -3.174  26.167  -7.141  0.13  1.46     0.130 H 
ATOM     49  HA  PHE A   5      -4.478  26.897  -1.737  0.10  1.39     0.098 H 
ATOM     50  HE1 PHE A   5      -5.422  25.609  -6.571  0.14  1.46     0.143 H 
ATOM     51  HE2 PHE A   5      -1.459  26.099  -5.469  0.14  1.46     0.143 H 
ATOM     52  H   PHE A   5      -4.396  25.009   0.418  0.27  0.60     0.272 HD
ATOM     53  HD2 PHE A   5      -2.025  25.487  -3.246  0.13  1.46     0.133 H 
ATOM     54  HD1 PHE A   5      -5.954  25.003  -4.349  0.13  1.46     0.133 H 
ATOM     55  HB3 PHE A   5      -5.041  24.126  -2.212  0.03  1.49     0.029 H 
ATOM     56  HB2 PHE A   5      -3.528  24.543  -1.761  0.03  1.49     0.029 H 
ATOM     57  N   PHE A   6      -7.231  25.246  -1.240 -0.42  1.82    -0.416 N 
ATOM     58  CA  PHE A   6      -8.604  25.301  -1.672 -0.00  1.91    -0.002 C 
ATOM     59  C   PHE A   6      -9.551  25.437  -0.515  0.60  1.91     0.597 C 
ATOM     60  O   PHE A   6      -9.680  24.522   0.298 -0.57  1.66    -0.568 OA
ATOM     61  CB  PHE A   6      -9.080  24.018  -2.389 -0.03  1.91    -0.034 C 
ATOM     62  CG  PHE A   6      -8.325  23.759  -3.653  0.01  1.91     0.012 A 
ATOM     63  CD1 PHE A   6      -8.742  24.297  -4.850 -0.13  1.91    -0.126 A 
ATOM     64  CD2 PHE A   6      -7.202  22.963  -3.645 -0.13  1.91    -0.126 A 
ATOM     65  CE1 PHE A   6      -8.050  24.043  -6.013 -0.17  1.91    -0.170 A 
ATOM     66  CE2 PHE A   6      -6.507  22.705  -4.804 -0.17  1.91    -0.170 A 
ATOM     67  CZ  PHE A   6      -6.929  23.248  -5.992 -0.11  1.91    -0.107 A 
ATOM     68  HZ  PHE A   6      -6.426  23.069  -6.840  0.13  1.46     0.130 H 
ATOM     69  HA  PHE A   6      -8.704  26.137  -2.237  0.10  1.39     0.098 H 
ATOM     70  HE1 PHE A   6      -8.375  24.446  -6.884  0.14  1.46     0.143 H 
ATOM     71  HE2 PHE A   6      -5.682  22.110  -4.774  0.14  1.46     0.143 H 
ATOM     72  H   PHE A   6      -6.833  24.602  -0.574  0.27  0.60     0.272 HD
ATOM     73  HD2 PHE A   6      -6.884  22.564  -2.777  0.13  1.46     0.133 H 
ATOM     74  HD1 PHE A   6      -9.554  24.879  -4.880  0.13  1.46     0.133 H 
ATOM     75  HB3 PHE A   6     -10.029  24.140  -2.610  0.03  1.49     0.029 H 
ATOM     76  HB2 PHE A   6      -8.931  23.266  -1.775  0.03  1.49     0.029 H 
ATOM     77  N   LYS A   7     -10.190  26.616  -0.361 -0.35  1.82    -0.348 N 
ATOM     78  CA  LYS A   7     -11.270  26.742   0.581 -0.24  1.91    -0.240 C 
ATOM     79  C   LYS A   7     -12.559  26.250  -0.012  0.73  1.91     0.734 C 
ATOM     80  O   LYS A   7     -13.297  25.486   0.608 -0.59  1.66    -0.589 OA
ATOM     81  CB  LYS A   7     -11.508  28.185   1.052 -0.01  1.91    -0.009 C 
ATOM     82  CG  LYS A   7     -10.429  28.672   2.018  0.02  1.91     0.019 C 
ATOM     83  CD  LYS A   7     -10.440  30.181   2.256 -0.05  1.91    -0.048 C 
ATOM     84  CE  LYS A   7      -9.847  30.968   1.087 -0.01  1.91    -0.014 C 
ATOM     85  NZ  LYS A   7      -8.513  30.424   0.746 -0.39  1.82    -0.385 N 
ATOM     86  HA  LYS A   7     -11.057  26.192   1.403  0.14  1.39     0.143 H 
ATOM     87  HE2 LYS A   7     -10.454  30.883   0.304  0.11  1.10     0.114 H 
ATOM     88  HE3 LYS A   7      -9.761  31.922   1.355  0.11  1.10     0.114 H 
ATOM     89  HG2 LYS A   7     -10.554  28.206   2.905  0.01  1.49     0.010 H 
ATOM     90  HG3 LYS A   7      -9.524  28.410   1.654  0.01  1.49     0.010 H 
ATOM     91  HZ1 LYS A   7      -7.893  31.175   0.515  0.34  0.60     0.340 HD
ATOM     92  HZ3 LYS A   7      -8.146  29.920   1.529  0.34  0.60     0.340 HD
ATOM     93  HZ2 LYS A   7      -8.593  29.807  -0.038  0.34  0.60     0.340 HD
ATOM     94  HD3 LYS A   7      -9.905  30.382   3.074  0.06  1.49     0.062 H 
ATOM     95  HD2 LYS A   7     -11.384  30.478   2.389  0.06  1.49     0.062 H 
ATOM     96  H   LYS A   7      -9.836  27.375  -0.962  0.27  0.60     0.275 HD
ATOM     97  HB3 LYS A   7     -12.383  28.219   1.516  0.04  1.49     0.036 H 
ATOM     98  HB2 LYS A   7     -11.505  28.776   0.257  0.04  1.49     0.036 H 
ATOM     99  N   ASN A   8     -12.839  26.675  -1.264 -0.42  1.82    -0.416 N 
ATOM    100  CA  ASN A   8     -14.096  26.424  -1.918  0.01  1.91     0.014 C 
ATOM    101  C   ASN A   8     -15.198  27.001  -1.080  0.60  1.91     0.597 C 
ATOM    102  O   ASN A   8     -16.288  26.440  -0.994 -0.57  1.66    -0.568 OA
ATOM    103  CB  ASN A   8     -14.410  24.941  -2.188 -0.20  1.91    -0.204 C 
ATOM    104  CG  ASN A   8     -13.676  24.523  -3.455  0.71  1.91     0.713 C 
ATOM    105  HA  ASN A   8     -14.088  26.923  -2.787  0.10  1.39     0.105 H 
ATOM    106  H   ASN A   8     -12.047  27.204  -1.705  0.27  0.60     0.272 HD
ATOM    107  HB3 ASN A   8     -15.371  24.849  -2.333  0.08  1.49     0.080 H 
ATOM    108  HB2 ASN A   8     -14.076  24.411  -1.439  0.08  1.49     0.080 H 
ATOM    109  OD1 ASN A   8     -12.830  25.253  -3.970 -0.59  1.66    -0.593 OA
ATOM    110  ND2 ASN A   8     -14.031  23.324  -3.989 -0.92  1.82    -0.919 N 
ATOM    111 2HD2 ASN A   8     -13.582  23.005  -4.806  0.42  0.60     0.420 HD
ATOM    112 1HD2 ASN A   8     -14.742  22.789  -3.542  0.42  0.60     0.420 HD
ATOM    113  N   ILE A   9     -14.909  28.049  -0.293 -0.42  1.82    -0.416 N 
ATOM    114  CA  ILE A   9     -15.985  28.690   0.405 -0.06  1.91    -0.060 C 
ATOM    115  C   ILE A   9     -16.635  29.806  -0.347  0.60  1.91     0.597 C 
ATOM    116  O   ILE A   9     -17.842  29.801  -0.586 -0.57  1.66    -0.568 OA
ATOM    117  CB  ILE A   9     -15.574  29.156   1.772  0.13  1.91     0.130 C 
ATOM    118  CG1 ILE A   9     -14.385  30.124   1.691 -0.04  1.91    -0.043 C 
ATOM    119  CG2 ILE A   9     -15.307  27.909   2.631 -0.32  1.91    -0.320 C 
ATOM    120  CD1 ILE A   9     -13.977  30.684   3.052 -0.07  1.91    -0.066 C 
ATOM    121  HA  ILE A   9     -16.701  27.973   0.548  0.09  1.39     0.087 H 
ATOM    122 2HG2 ILE A   9     -15.092  28.204   3.558  0.09  1.49     0.088 H 
ATOM    123 1HG2 ILE A   9     -16.125  27.342   2.627  0.09  1.49     0.088 H 
ATOM    124  HB  ILE A   9     -16.335  29.654   2.188  0.02  1.49     0.019 H 
ATOM    125 2HG1 ILE A   9     -13.610  29.642   1.298  0.02  1.49     0.024 H 
ATOM    126 3HG1 ILE A   9     -14.638  30.883   1.100  0.02  1.49     0.024 H 
ATOM    127 3HD1 ILE A   9     -13.718  29.929   3.649  0.02  1.49     0.019 H 
ATOM    128  H   ILE A   9     -13.927  28.312  -0.253  0.27  0.60     0.272 HD
ATOM    129 2HD1 ILE A   9     -13.204  31.302   2.930  0.02  1.49     0.019 H 
ATOM    130 3HG2 ILE A   9     -14.539  27.413   2.237  0.09  1.49     0.088 H 
ATOM    131 1HD1 ILE A   9     -14.749  31.178   3.444  0.02  1.49     0.019 H 
ATOM    132  N   VAL A  10     -15.813  30.775  -0.795 -0.42  1.82    -0.416 N 
ATOM    133  H   VAL A  10     -14.814  30.572  -0.701  0.27  0.60     0.272 HD
ENDROOT
BRANCH 132 134
ATOM    134  CA  VAL A  10     -16.376  31.970  -1.348 -0.09  1.91    -0.087 C 
ATOM    135  HA  VAL A  10     -17.155  31.717  -1.926  0.10  1.39     0.097 H 
BRANCH 134 136
ATOM    136  C   VAL A  10     -15.342  32.617  -2.205  0.60  1.91     0.597 C 
ATOM    137  N   THR A  11     -15.562  33.910  -2.508 -0.38  1.82    -0.382 N 
ATOM    138  H   THR A  11     -16.453  34.286  -2.124  0.27  0.60     0.268 HD
ATOM    139  O   VAL A  10     -14.379  31.984  -2.633 -0.57  1.66    -0.568 OA
BRANCH 137 140
ATOM    140  CA  THR A  11     -14.631  34.664  -3.290 -0.24  1.91    -0.242 C 
ATOM    141  HA  THR A  11     -14.433  34.175  -4.135  0.12  1.39     0.121 H 
BRANCH 140 142
ATOM    142  C   THR A  11     -13.338  34.765  -2.489  0.78  1.91     0.781 C 
ATOM    143  OXT THR A  11     -13.377  34.507  -1.256 -0.80  1.66    -0.804 OA
ATOM    144  O   THR A  11     -12.292  35.104  -3.105 -0.80  1.66    -0.804 OA
ENDBRANCH 140 142
BRANCH 140 145
ATOM    145  CB  THR A  11     -15.101  36.061  -3.565  0.30  1.91     0.302 C 
ATOM    146  HB  THR A  11     -15.227  36.562  -2.677  0.01  1.39     0.008 H 
BRANCH 145 147
ATOM    147  OG1 THR A  11     -16.354  36.024  -4.227 -0.65  1.72    -0.650 OA
ATOM    148  HG1 THR A  11     -16.634  35.073  -4.408  0.41  0.00     0.412 HD
ENDBRANCH 145 147
BRANCH 145 149
ATOM    149  CG2 THR A  11     -14.060  36.776  -4.444 -0.19  1.91    -0.185 C 
ATOM    150 3HG2 THR A  11     -13.425  37.283  -3.860  0.06  1.49     0.059 H 
ATOM    151 1HG2 THR A  11     -14.526  37.410  -5.062  0.06  1.49     0.059 H 
ATOM    152 2HG2 THR A  11     -13.555  36.098  -4.978  0.06  1.49     0.059 H 
ENDBRANCH 145 149
ENDBRANCH 140 145
ENDBRANCH 137 140
ENDBRANCH 134 136
BRANCH 134 153
ATOM    153  CB  VAL A  10     -16.754  32.976  -0.302  0.30  1.91     0.298 C 
ATOM    154  HB  VAL A  10     -17.147  33.771  -0.745 -0.03  1.49    -0.030 H 
BRANCH 153 155
ATOM    155  CG1 VAL A  10     -17.870  32.383   0.574 -0.32  1.91    -0.319 C 
ATOM    156 3HG1 VAL A  10     -18.518  31.897  -0.008  0.08  1.49     0.079 H 
ATOM    157 1HG1 VAL A  10     -17.467  31.752   1.232  0.08  1.49     0.079 H 
ATOM    158 2HG1 VAL A  10     -18.335  33.123   1.055  0.08  1.49     0.079 H 
ENDBRANCH 153 155
BRANCH 153 159
ATOM    159  CG2 VAL A  10     -15.485  33.360   0.482 -0.32  1.91    -0.319 C 
ATOM    160 3HG2 VAL A  10     -14.687  33.144  -0.074  0.08  1.49     0.079 H 
ATOM    161 2HG2 VAL A  10     -15.513  34.337   0.679  0.08  1.49     0.079 H 
ATOM    162 1HG2 VAL A  10     -15.463  32.839   1.331  0.08  1.49     0.079 H 
ENDBRANCH 153 159
ENDBRANCH 134 153
ENDBRANCH 132 134
BRANCH   1 163
ATOM    163  CA  VAL A   2       1.942  26.425  -0.086 -0.09  1.91    -0.087 C 
ATOM    164  HA  VAL A   2       1.525  26.992  -0.799  0.10  1.39     0.097 H 
BRANCH 163 165
ATOM    165  CB  VAL A   2       1.798  24.973  -0.410  0.30  1.91     0.298 C 
ATOM    166  HB  VAL A   2       0.836  24.744  -0.462 -0.03  1.49    -0.030 H 
BRANCH 165 167
ATOM    167  CG1 VAL A   2       2.366  24.732  -1.819 -0.32  1.91    -0.319 C 
ATOM    168 3HG1 VAL A   2       3.142  25.340  -1.966  0.08  1.49     0.079 H 
ATOM    169 2HG1 VAL A   2       1.656  24.920  -2.493  0.08  1.49     0.079 H 
ATOM    170 1HG1 VAL A   2       2.661  23.782  -1.893  0.08  1.49     0.079 H 
ENDBRANCH 165 167
BRANCH 165 171
ATOM    171  CG2 VAL A   2       2.567  24.189   0.659 -0.32  1.91    -0.319 C 
ATOM    172 3HG2 VAL A   2       3.535  24.427   0.603  0.08  1.49     0.079 H 
ATOM    173 2HG2 VAL A   2       2.209  24.430   1.559  0.08  1.49     0.079 H 
ATOM    174 1HG2 VAL A   2       2.446  23.212   0.495  0.08  1.49     0.079 H 
ENDBRANCH 165 171
ENDBRANCH 163 165
BRANCH 163 175
ATOM    175  N   VAL A   2       3.314  26.802   0.054 -0.42  1.82    -0.416 N 
ATOM    176  H   VAL A   2       3.857  26.756   0.931  0.27  0.60     0.272 HD
ATOM    177  C   PRO A   1       4.006  27.260  -1.004  0.53  1.91     0.526 C 
ATOM    178  O   PRO A   1       3.541  27.352  -2.140 -0.50  1.66    -0.500 OA
BRANCH 177 179
ATOM    179  CA  PRO A   1       5.421  27.651  -0.762  0.10  1.91     0.100 C 
ATOM    180  CB  PRO A   1       6.152  26.640   0.117 -0.12  1.91    -0.115 C 
ATOM    181  HB2 PRO A   1       5.776  25.722   0.006  0.10  1.49     0.100 H 
ATOM    182  HB3 PRO A   1       7.131  26.630  -0.075  0.10  1.49     0.100 H 
ATOM    183  CG  PRO A   1       5.906  27.134   1.548 -0.12  1.91    -0.121 C 
ATOM    184  HG3 PRO A   1       6.661  26.867   2.135  0.10  1.49     0.100 H 
ATOM    185  HG2 PRO A   1       5.049  26.769   1.892  0.10  1.49     0.100 H 
ATOM    186  CD  PRO A   1       5.833  28.662   1.417 -0.01  1.91    -0.012 C 
ATOM    187  N   PRO A   1       5.352  28.916   0.017 -0.20  1.82    -0.202 N 
ATOM    188  HD3 PRO A   1       6.734  29.078   1.553  0.10  1.10     0.100 H 
ATOM    189  HD2 PRO A   1       5.189  29.049   2.078  0.10  1.10     0.100 H 
ATOM    190  H2  PRO A   1       5.752  29.649  -0.492  0.31  0.60     0.312 HD
ATOM    191  H   PRO A   1       4.413  29.101   0.266  0.31  0.60     0.312 HD
ATOM    192  HA  PRO A   1       5.924  27.792  -1.596  0.10  1.10     0.100 H 
ENDBRANCH 177 179
ENDBRANCH 163 175
ENDBRANCH   1 163
TORSDOF 50
