REMARK  16 active torsions:
REMARK  status: ('A' for Active; 'I' for Inactive)
REMARK    1  A    between atoms: CA_2  and  C_3 
REMARK       I    between atoms: C_3  and  N_17 
REMARK    2  A    between atoms: N_17  and  CA_18 
REMARK    3  A    between atoms: CA_18  and  CB_21 
REMARK    4  A    between atoms: CA_18  and  C_19 
REMARK       I    between atoms: C_19  and  N_33 
REMARK    5  A    between atoms: CB_21  and  CG1_22 
REMARK    6  A    between atoms: CB_21  and  CG2_23 
REMARK       I    between atoms: N_33  and  CA_34 
REMARK       I    between atoms: CA_34  and  C_35 
REMARK       I    between atoms: CA_34  and  CB_37 
REMARK       I    between atoms: C_35  and  N_49 
REMARK       I    between atoms: CB_37  and  CG1_38 
REMARK       I    between atoms: CB_37  and  CG2_39 
REMARK       I    between atoms: N_49  and  CA_50 
REMARK       I    between atoms: CA_50  and  C_51 
REMARK       I    between atoms: CA_50  and  CB_54 
REMARK       I    between atoms: C_51  and  N_67 
REMARK       I    between atoms: CG_53  and  CB_54 
REMARK       I    between atoms: N_67  and  CA_68 
REMARK       I    between atoms: CA_68  and  CB_71 
REMARK       I    between atoms: CA_68  and  C_69 
REMARK       I    between atoms: C_69  and  N_87 
REMARK       I    between atoms: CB_71  and  CG_72 
REMARK       I    between atoms: N_87  and  CA_88 
REMARK       I    between atoms: CA_88  and  CB_91 
REMARK       I    between atoms: CA_88  and  C_89 
REMARK       I    between atoms: C_89  and  N_107 
REMARK       I    between atoms: CB_91  and  CG_92 
REMARK       I    between atoms: N_107  and  CA_108 
REMARK       I    between atoms: CA_108  and  C_109 
REMARK       I    between atoms: CA_108  and  CB_111 
REMARK       I    between atoms: C_109  and  N_129 
REMARK       I    between atoms: CB_111  and  CG_112 
REMARK       I    between atoms: CG_112  and  CD_113 
REMARK       I    between atoms: CD_113  and  CE_114 
REMARK       I    between atoms: CE_114  and  NZ_115 
REMARK       I    between atoms: N_129  and  CA_130 
REMARK       I    between atoms: CA_130  and  CB_133 
REMARK       I    between atoms: CA_130  and  C_131 
REMARK       I    between atoms: C_131  and  N_143 
REMARK       I    between atoms: CB_133  and  CG_134 
REMARK       I    between atoms: CG_134  and  ND2_140 
REMARK       I    between atoms: N_143  and  CA_144 
REMARK       I    between atoms: CA_144  and  C_145 
REMARK       I    between atoms: CA_144  and  CB_147 
REMARK       I    between atoms: C_145  and  N_162 
REMARK       I    between atoms: CB_147  and  CG1_148 
REMARK       I    between atoms: CB_147  and  CG2_149 
REMARK       I    between atoms: CG1_148  and  CD1_150 
REMARK    7  A    between atoms: N_162  and  CA_163 
REMARK    8  A    between atoms: CA_163  and  CB_166 
REMARK    9  A    between atoms: CA_163  and  C_164 
REMARK       I    between atoms: C_164  and  N_178 
REMARK   10  A    between atoms: CB_166  and  CG1_167 
REMARK   11  A    between atoms: CB_166  and  CG2_168 
REMARK   12  A    between atoms: N_178  and  CA_179 
REMARK   13  A    between atoms: CA_179  and  C_180 
REMARK   14  A    between atoms: CA_179  and  CB_182 
REMARK   15  A    between atoms: CB_182  and  CG2_184 
REMARK   16  A    between atoms: CB_182  and  OG1_183 
ROOT
ATOM      1  C   VAL A   2      -6.260  30.641   2.170  0.60  1.91     0.597 C 
ATOM      2  O   VAL A   2      -6.846  31.483   1.515 -0.57  1.66    -0.568 OA
ATOM      3  N   VAL A   3      -5.017  30.852   2.636 -0.42  1.82    -0.416 N 
ATOM      4  CA  VAL A   3      -4.431  32.139   2.409 -0.09  1.91    -0.087 C 
ATOM      5  C   VAL A   3      -4.210  32.497   0.955  0.60  1.91     0.597 C 
ATOM      6  O   VAL A   3      -4.840  33.433   0.469 -0.57  1.66    -0.568 OA
ATOM      7  CB  VAL A   3      -3.164  32.353   3.188  0.30  1.91     0.298 C 
ATOM      8  CG1 VAL A   3      -3.511  32.468   4.684 -0.32  1.91    -0.319 C 
ATOM      9  CG2 VAL A   3      -2.240  31.166   2.918 -0.32  1.91    -0.319 C 
ATOM     10  HA  VAL A   3      -5.053  32.851   2.811  0.10  1.39     0.097 H 
ATOM     11 1HG1 VAL A   3      -4.484  32.666   4.778  0.08  1.49     0.079 H 
ATOM     12 1HG2 VAL A   3      -1.686  30.992   3.731  0.08  1.49     0.079 H 
ATOM     13  HB  VAL A   3      -2.770  33.226   2.931 -0.03  1.49    -0.030 H 
ATOM     14 2HG1 VAL A   3      -3.295  31.605   5.135  0.08  1.49     0.079 H 
ATOM     15 3HG1 VAL A   3      -2.974  33.205   5.086  0.08  1.49     0.079 H 
ATOM     16  H   VAL A   3      -4.587  30.071   3.118  0.27  0.60     0.272 HD
ATOM     17 3HG2 VAL A   3      -2.794  30.362   2.706  0.08  1.49     0.079 H 
ATOM     18 2HG2 VAL A   3      -1.647  31.383   2.144  0.08  1.49     0.079 H 
ATOM     19  N   HIS A   4      -3.348  31.775   0.203 -0.35  1.82    -0.348 N 
ATOM     20  CA  HIS A   4      -3.079  32.201  -1.153 -0.14  1.91    -0.135 C 
ATOM     21  C   HIS A   4      -4.247  31.966  -2.061  0.73  1.91     0.734 C 
ATOM     22  O   HIS A   4      -4.650  32.856  -2.807 -0.59  1.66    -0.589 OA
ATOM     23  CG  HIS A   4      -1.628  31.966  -3.202 -0.00  1.91    -0.001 A 
ATOM     24  CB  HIS A   4      -1.874  31.495  -1.797 -0.04  1.91    -0.041 C 
ATOM     25  HB2 HIS A   4      -1.059  31.682  -1.253  0.08  1.49     0.081 H 
ATOM     26  HB3 HIS A   4      -2.048  30.513  -1.819  0.08  1.49     0.081 H 
ATOM     27  H   HIS A   4      -2.943  30.963   0.663  0.27  0.60     0.275 HD
ATOM     28  HA  HIS A   4      -2.874  33.196  -1.139  0.12  1.39     0.121 H 
ATOM     29  CD2 HIS A   4      -2.026  31.426  -4.386 -0.11  1.91    -0.114 A 
ATOM     30  HE2 HIS A   4      -1.727  32.032  -6.394  0.39  0.60     0.391 HD
ATOM     31  HD1 HIS A   4      -0.489  33.729  -2.916  0.39  0.60     0.387 HD
ATOM     32  HD2 HIS A   4      -2.574  30.576  -4.481  0.23  1.41     0.232 H 
ATOM     33  CE1 HIS A   4      -0.922  33.190  -4.882 -0.02  1.91    -0.017 A 
ATOM     34  ND1 HIS A   4      -0.919  33.100  -3.527 -0.15  1.82    -0.151 N 
ATOM     35  NE2 HIS A   4      -1.582  32.195  -5.447 -0.17  1.82    -0.172 N 
ATOM     36  HE1 HIS A   4      -0.466  33.942  -5.385  0.27  1.36     0.268 H 
ATOM     37  N   PHE A   5      -4.833  30.754  -2.010 -0.42  1.82    -0.416 N 
ATOM     38  CA  PHE A   5      -5.894  30.398  -2.909 -0.00  1.91    -0.002 C 
ATOM     39  C   PHE A   5      -7.185  30.397  -2.168  0.60  1.91     0.597 C 
ATOM     40  O   PHE A   5      -7.220  30.245  -0.948 -0.57  1.66    -0.568 OA
ATOM     41  CB  PHE A   5      -5.740  29.002  -3.531 -0.03  1.91    -0.034 C 
ATOM     42  CG  PHE A   5      -4.700  28.991  -4.603  0.01  1.91     0.012 A 
ATOM     43  CD1 PHE A   5      -5.023  29.321  -5.901 -0.13  1.91    -0.126 A 
ATOM     44  CD2 PHE A   5      -3.402  28.638  -4.324 -0.13  1.91    -0.126 A 
ATOM     45  CE1 PHE A   5      -4.071  29.305  -6.896 -0.17  1.91    -0.170 A 
ATOM     46  CE2 PHE A   5      -2.446  28.619  -5.313 -0.17  1.91    -0.170 A 
ATOM     47  CZ  PHE A   5      -2.776  28.952  -6.603 -0.11  1.91    -0.107 A 
ATOM     48  HZ  PHE A   5      -2.084  28.940  -7.325  0.13  1.46     0.130 H 
ATOM     49  HA  PHE A   5      -5.948  31.122  -3.605  0.10  1.39     0.098 H 
ATOM     50  HE1 PHE A   5      -4.334  29.553  -7.841  0.14  1.46     0.143 H 
ATOM     51  HE2 PHE A   5      -1.489  28.354  -5.080  0.14  1.46     0.143 H 
ATOM     52  H   PHE A   5      -4.447  30.129  -1.276  0.27  0.60     0.272 HD
ATOM     53  HD2 PHE A   5      -3.146  28.390  -3.383  0.13  1.46     0.133 H 
ATOM     54  HD1 PHE A   5      -5.964  29.578  -6.129  0.13  1.46     0.133 H 
ATOM     55  HB3 PHE A   5      -6.601  28.758  -3.929  0.03  1.49     0.029 H 
ATOM     56  HB2 PHE A   5      -5.461  28.389  -2.820  0.03  1.49     0.029 H 
ATOM     57  N   PHE A   6      -8.292  30.614  -2.907 -0.42  1.82    -0.416 N 
ATOM     58  CA  PHE A   6      -9.543  30.737  -2.228 -0.00  1.91    -0.002 C 
ATOM     59  C   PHE A   6      -9.871  29.488  -1.466  0.60  1.91     0.597 C 
ATOM     60  O   PHE A   6      -9.627  29.419  -0.263 -0.57  1.66    -0.568 OA
ATOM     61  CB  PHE A   6     -10.677  31.011  -3.232 -0.03  1.91    -0.034 C 
ATOM     62  CG  PHE A   6     -11.979  31.191  -2.529  0.01  1.91     0.012 A 
ATOM     63  CD1 PHE A   6     -12.237  32.352  -1.841 -0.13  1.91    -0.126 A 
ATOM     64  CD2 PHE A   6     -12.954  30.221  -2.590 -0.13  1.91    -0.126 A 
ATOM     65  CE1 PHE A   6     -13.437  32.536  -1.198 -0.17  1.91    -0.170 A 
ATOM     66  CE2 PHE A   6     -14.159  30.399  -1.949 -0.17  1.91    -0.170 A 
ATOM     67  CZ  PHE A   6     -14.400  31.559  -1.251 -0.11  1.91    -0.107 A 
ATOM     68  HZ  PHE A   6     -15.277  31.694  -0.781  0.13  1.46     0.130 H 
ATOM     69  HA  PHE A   6      -9.445  31.480  -1.547  0.10  1.39     0.098 H 
ATOM     70  HE1 PHE A   6     -13.603  33.393  -0.687  0.14  1.46     0.143 H 
ATOM     71  HE2 PHE A   6     -14.866  29.669  -1.994  0.14  1.46     0.143 H 
ATOM     72  H   PHE A   6      -8.141  30.674  -3.911  0.27  0.60     0.272 HD
ATOM     73  HD2 PHE A   6     -12.785  29.378  -3.106  0.13  1.46     0.133 H 
ATOM     74  HD1 PHE A   6     -11.546  33.075  -1.806  0.13  1.46     0.133 H 
ATOM     75  HB3 PHE A   6     -10.743  30.234  -3.821  0.03  1.49     0.029 H 
ATOM     76  HB2 PHE A   6     -10.459  31.838  -3.705  0.03  1.49     0.029 H 
ATOM     77  N   LYS A   7     -10.408  28.446  -2.137 -0.35  1.82    -0.348 N 
ATOM     78  CA  LYS A   7     -10.728  27.259  -1.391 -0.24  1.91    -0.240 C 
ATOM     79  C   LYS A   7      -9.587  26.302  -1.275  0.73  1.91     0.734 C 
ATOM     80  O   LYS A   7      -9.314  25.752  -0.210 -0.59  1.66    -0.589 OA
ATOM     81  CB  LYS A   7     -11.936  26.458  -1.894 -0.01  1.91    -0.009 C 
ATOM     82  CG  LYS A   7     -12.289  25.375  -0.870  0.02  1.91     0.019 C 
ATOM     83  CD  LYS A   7     -13.693  24.785  -0.995 -0.05  1.91    -0.048 C 
ATOM     84  CE  LYS A   7     -14.031  23.822   0.149 -0.01  1.91    -0.014 C 
ATOM     85  NZ  LYS A   7     -15.389  23.267  -0.036 -0.39  1.82    -0.385 N 
ATOM     86  HA  LYS A   7     -11.026  27.534  -0.451  0.14  1.39     0.143 H 
ATOM     87  HE2 LYS A   7     -13.362  23.083   0.150  0.11  1.10     0.114 H 
ATOM     88  HE3 LYS A   7     -13.986  24.323   1.009  0.11  1.10     0.114 H 
ATOM     89  HG2 LYS A   7     -11.614  24.620  -0.953  0.01  1.49     0.010 H 
ATOM     90  HG3 LYS A   7     -12.185  25.765   0.062  0.01  1.49     0.010 H 
ATOM     91  HZ1 LYS A   7     -15.385  22.289   0.180  0.34  0.60     0.340 HD
ATOM     92  HZ3 LYS A   7     -16.030  23.738   0.572  0.34  0.60     0.340 HD
ATOM     93  HZ2 LYS A   7     -15.678  23.395  -0.986  0.34  0.60     0.340 HD
ATOM     94  HD3 LYS A   7     -13.757  24.284  -1.855  0.06  1.49     0.062 H 
ATOM     95  HD2 LYS A   7     -14.357  25.529  -0.984  0.06  1.49     0.062 H 
ATOM     96  H   LYS A   7     -10.545  28.587  -3.131  0.27  0.60     0.275 HD
ATOM     97  HB3 LYS A   7     -11.693  26.022  -2.735  0.04  1.49     0.036 H 
ATOM     98  HB2 LYS A   7     -12.698  27.063  -1.979  0.04  1.49     0.036 H 
ATOM     99  N   ASN A   8      -8.861  26.125  -2.391 -0.42  1.82    -0.416 N 
ATOM    100  CA  ASN A   8      -7.936  25.046  -2.553  0.01  1.91     0.014 C 
ATOM    101  C   ASN A   8      -6.627  25.248  -1.899  0.60  1.91     0.597 C 
ATOM    102  O   ASN A   8      -6.566  25.672  -0.757 -0.57  1.66    -0.568 OA
ATOM    103  CB  ASN A   8      -7.690  24.622  -4.009 -0.20  1.91    -0.204 C 
ATOM    104  CG  ASN A   8      -8.964  23.947  -4.496  0.71  1.91     0.713 C 
ATOM    105  HA  ASN A   8      -8.369  24.215  -2.128  0.10  1.39     0.105 H 
ATOM    106  H   ASN A   8      -9.043  26.855  -3.123  0.27  0.60     0.272 HD
ATOM    107  HB3 ASN A   8      -6.964  23.976  -4.026  0.08  1.49     0.080 H 
ATOM    108  HB2 ASN A   8      -7.531  25.419  -4.543  0.08  1.49     0.080 H 
ATOM    109  OD1 ASN A   8      -9.876  24.593  -5.011 -0.59  1.66    -0.593 OA
ATOM    110  ND2 ASN A   8      -9.028  22.599  -4.324 -0.92  1.82    -0.919 N 
ATOM    111 2HD2 ASN A   8      -9.831  22.110  -4.627  0.42  0.60     0.420 HD
ATOM    112 1HD2 ASN A   8      -8.264  22.130  -3.894  0.42  0.60     0.420 HD
ATOM    113  N   ILE A   9      -5.547  25.086  -2.678 -0.42  1.82    -0.416 N 
ATOM    114  CA  ILE A   9      -4.272  24.660  -2.191 -0.06  1.91    -0.060 C 
ATOM    115  C   ILE A   9      -3.855  25.261  -0.885  0.60  1.91     0.597 C 
ATOM    116  O   ILE A   9      -4.070  24.590   0.122 -0.57  1.66    -0.568 OA
ATOM    117  CB  ILE A   9      -3.220  25.046  -3.189  0.13  1.91     0.130 C 
ATOM    118  CG1 ILE A   9      -3.632  24.565  -4.584 -0.04  1.91    -0.043 C 
ATOM    119  CG2 ILE A   9      -1.865  24.499  -2.717 -0.32  1.91    -0.320 C 
ATOM    120  CD1 ILE A   9      -2.831  25.208  -5.716 -0.07  1.91    -0.066 C 
ATOM    121  HA  ILE A   9      -4.345  23.648  -2.039  0.09  1.39     0.087 H 
ATOM    122 2HG2 ILE A   9      -1.163  24.794  -3.359  0.09  1.49     0.088 H 
ATOM    123 1HG2 ILE A   9      -1.677  24.860  -1.808  0.09  1.49     0.088 H 
ATOM    124  HB  ILE A   9      -3.154  26.038  -3.224  0.02  1.49     0.019 H 
ATOM    125 2HG1 ILE A   9      -3.511  23.577  -4.629  0.02  1.49     0.024 H 
ATOM    126 3HG1 ILE A   9      -4.596  24.780  -4.720  0.02  1.49     0.024 H 
ATOM    127 3HD1 ILE A   9      -1.866  24.990  -5.594  0.02  1.49     0.019 H 
ATOM    128  H   ILE A   9      -5.738  25.307  -3.694  0.27  0.60     0.272 HD
ATOM    129 2HD1 ILE A   9      -3.155  24.847  -6.587  0.02  1.49     0.019 H 
ATOM    130 3HG2 ILE A   9      -1.916  23.505  -2.692  0.09  1.49     0.088 H 
ATOM    131 1HD1 ILE A   9      -2.963  26.195  -5.686  0.02  1.49     0.019 H 
ATOM    132  N   VAL A  10      -3.414  26.533  -0.808 -0.42  1.82    -0.416 N 
ATOM    133  H   VAL A  10      -3.514  27.083  -1.662  0.27  0.60     0.272 HD
ENDROOT
BRANCH 132 134
ATOM    134  CA  VAL A  10      -2.848  27.017   0.439 -0.09  1.91    -0.087 C 
ATOM    135  HA  VAL A  10      -3.586  27.052   1.119  0.10  1.39     0.097 H 
BRANCH 134 136
ATOM    136  CB  VAL A  10      -1.580  26.330   0.918  0.30  1.91     0.298 C 
ATOM    137  HB  VAL A  10      -1.159  26.905   1.634 -0.03  1.49    -0.030 H 
BRANCH 136 138
ATOM    138  CG1 VAL A  10      -1.817  24.954   1.561 -0.32  1.91    -0.319 C 
ATOM    139 3HG1 VAL A  10      -2.799  24.796   1.642  0.08  1.49     0.079 H 
ATOM    140 1HG1 VAL A  10      -1.408  24.250   0.985  0.08  1.49     0.079 H 
ATOM    141 2HG1 VAL A  10      -1.396  24.939   2.465  0.08  1.49     0.079 H 
ENDBRANCH 136 138
BRANCH 136 142
ATOM    142  CG2 VAL A  10      -0.627  26.269  -0.290 -0.32  1.91    -0.319 C 
ATOM    143 3HG2 VAL A  10      -1.170  26.237  -1.126  0.08  1.49     0.079 H 
ATOM    144 1HG2 VAL A  10      -0.064  25.450  -0.214  0.08  1.49     0.079 H 
ATOM    145 2HG2 VAL A  10      -0.051  27.083  -0.286  0.08  1.49     0.079 H 
ENDBRANCH 136 142
ENDBRANCH 134 136
BRANCH 134 146
ATOM    146  C   VAL A  10      -2.320  28.391   0.231  0.60  1.91     0.597 C 
ATOM    147  N   THR A  11      -1.248  28.704   0.987 -0.38  1.82    -0.382 N 
ATOM    148  H   THR A  11      -0.989  27.949   1.667  0.27  0.60     0.268 HD
ATOM    149  O   VAL A  10      -2.857  29.189  -0.531 -0.57  1.66    -0.568 OA
BRANCH 147 150
ATOM    150  CA  THR A  11      -0.548  29.944   0.860 -0.24  1.91    -0.242 C 
ATOM    151  HA  THR A  11      -1.203  30.685   0.743  0.12  1.39     0.121 H 
BRANCH 150 152
ATOM    152  C   THR A  11       0.296  29.854  -0.398  0.78  1.91     0.781 C 
ATOM    153  O   THR A  11       0.408  28.731  -0.960 -0.80  1.66    -0.804 OA
ATOM    154  OXT THR A  11       0.845  30.911  -0.812 -0.80  1.66    -0.804 OA
ENDBRANCH 150 152
BRANCH 150 155
ATOM    155  CB  THR A  11       0.396  30.216   2.000  0.30  1.91     0.302 C 
ATOM    156  HB  THR A  11      -0.115  30.149   2.890  0.01  1.39     0.008 H 
BRANCH 155 157
ATOM    157  CG2 THR A  11       1.534  29.182   1.967 -0.19  1.91    -0.185 C 
ATOM    158 2HG2 THR A  11       2.019  29.250   1.095  0.06  1.49     0.059 H 
ATOM    159 1HG2 THR A  11       2.169  29.363   2.718  0.06  1.49     0.059 H 
ATOM    160 3HG2 THR A  11       1.151  28.263   2.066  0.06  1.49     0.059 H 
ENDBRANCH 155 157
BRANCH 155 161
ATOM    161  OG1 THR A  11       0.925  31.530   1.898 -0.65  1.72    -0.650 OA
ATOM    162  HG1 THR A  11       1.852  31.572   2.290  0.41  0.00     0.412 HD
ENDBRANCH 155 161
ENDBRANCH 150 155
ENDBRANCH 147 150
ENDBRANCH 134 146
ENDBRANCH 132 134
BRANCH   1 163
ATOM    163  CA  VAL A   2      -6.975  29.399   2.537 -0.09  1.91    -0.087 C 
ATOM    164  HA  VAL A   2      -7.027  29.342   3.536  0.10  1.39     0.097 H 
BRANCH 163 165
ATOM    165  N   VAL A   2      -8.296  29.495   2.018 -0.42  1.82    -0.416 N 
ATOM    166  H   VAL A   2      -8.557  29.464   1.024  0.27  0.60     0.272 HD
ATOM    167  C   PRO A   1      -9.333  29.641   2.865  0.53  1.91     0.526 C 
ATOM    168  O   PRO A   1      -9.206  29.679   4.088 -0.50  1.66    -0.500 OA
BRANCH 167 169
ATOM    169  CA  PRO A   1     -10.699  29.764   2.281  0.10  1.91     0.100 C 
ATOM    170  N   PRO A   1     -11.634  29.283   3.336 -0.20  1.82    -0.202 N 
ATOM    171  H2  PRO A   1     -11.965  28.390   3.112  0.31  0.60     0.312 HD
ATOM    172  CD  PRO A   1     -12.631  30.363   3.654 -0.01  1.91    -0.012 C 
ATOM    173  H   PRO A   1     -11.180  29.304   4.215  0.31  0.60     0.312 HD
ATOM    174  CG  PRO A   1     -12.516  31.362   2.495 -0.12  1.91    -0.121 C 
ATOM    175  HD2 PRO A   1     -12.402  30.795   4.525  0.10  1.10     0.100 H 
ATOM    176  HD3 PRO A   1     -13.552  29.976   3.706  0.10  1.10     0.100 H 
ATOM    177  CB  PRO A   1     -11.073  31.217   2.000 -0.12  1.91    -0.115 C 
ATOM    178  HG3 PRO A   1     -13.151  31.131   1.766  0.10  1.49     0.100 H 
ATOM    179  HG2 PRO A   1     -12.676  32.290   2.813  0.10  1.49     0.100 H 
ATOM    180  HB3 PRO A   1     -11.026  31.423   1.022  0.10  1.49     0.100 H 
ATOM    181  HB2 PRO A   1     -10.477  31.849   2.499  0.10  1.49     0.100 H 
ATOM    182  HA  PRO A   1     -10.810  29.230   1.460  0.10  1.10     0.100 H 
ENDBRANCH 167 169
ENDBRANCH 163 165
BRANCH 163 183
ATOM    183  CB  VAL A   2      -6.224  28.163   2.124  0.30  1.91     0.298 C 
ATOM    184  HB  VAL A   2      -5.310  28.206   2.487 -0.03  1.49    -0.030 H 
BRANCH 183 185
ATOM    185  CG1 VAL A   2      -6.903  26.968   2.819 -0.32  1.91    -0.319 C 
ATOM    186 1HG1 VAL A   2      -6.257  26.210   2.868  0.08  1.49     0.079 H 
ATOM    187 3HG1 VAL A   2      -7.704  26.698   2.291  0.08  1.49     0.079 H 
ATOM    188 2HG1 VAL A   2      -7.178  27.240   3.738  0.08  1.49     0.079 H 
ENDBRANCH 183 185
BRANCH 183 189
ATOM    189  CG2 VAL A   2      -6.219  28.042   0.594 -0.32  1.91    -0.319 C 
ATOM    190 1HG2 VAL A   2      -6.805  27.280   0.328  0.08  1.49     0.079 H 
ATOM    191 3HG2 VAL A   2      -6.564  28.892   0.201  0.08  1.49     0.079 H 
ATOM    192 2HG2 VAL A   2      -5.284  27.878   0.285  0.08  1.49     0.079 H 
ENDBRANCH 183 189
ENDBRANCH 163 183
ENDBRANCH   1 163
TORSDOF 50
