REMARK  19 active torsions:
REMARK  status: ('A' for Active; 'I' for Inactive)
REMARK    1  A    between atoms: N_1  and  CA_2 
REMARK    2  A    between atoms: CA_2  and  C_3 
REMARK    3  A    between atoms: CA_2  and  CB_6 
REMARK       I    between atoms: C_3  and  N_21 
REMARK    4  A    between atoms: CG_5  and  CB_6 
REMARK    5  A    between atoms: N_21  and  CA_22 
REMARK    6  A    between atoms: CA_22  and  CB_25 
REMARK    7  A    between atoms: CA_22  and  C_23 
REMARK       I    between atoms: C_23  and  N_41 
REMARK    8  A    between atoms: CB_25  and  CG_26 
REMARK       I    between atoms: N_41  and  CA_42 
REMARK       I    between atoms: CA_42  and  C_43 
REMARK       I    between atoms: CA_42  and  CB_45 
REMARK       I    between atoms: C_43  and  N_61 
REMARK       I    between atoms: CB_45  and  CG_46 
REMARK    9  A    between atoms: N_61  and  CA_62 
REMARK   10  A    between atoms: CA_62  and  C_63 
REMARK   11  A    between atoms: CA_62  and  CB_65 
REMARK       I    between atoms: C_63  and  N_83 
REMARK   12  A    between atoms: CB_65  and  CG_66 
REMARK   13  A    between atoms: CG_66  and  CD_67 
REMARK   14  A    between atoms: CD_67  and  CE_68 
REMARK   15  A    between atoms: CE_68  and  NZ_69 
REMARK   16  A    between atoms: N_83  and  CA_84 
REMARK   17  A    between atoms: CA_84  and  C_85 
REMARK   18  A    between atoms: CA_84  and  CB_87 
REMARK   19  A    between atoms: CB_87  and  CG_88 
REMARK       I    between atoms: CG_88  and  ND2_95 
ROOT
ATOM      1  C   PHE A   2      -5.397  23.516  -5.605  0.60  1.91     0.597 C 
ATOM      2  O   PHE A   2      -5.462  22.533  -4.868 -0.57  1.66    -0.568 OA
ATOM      3  N   PHE A   3      -6.498  24.248  -5.928 -0.42  1.82    -0.416 N 
ATOM      4  CA  PHE A   3      -7.803  23.707  -5.638 -0.00  1.91    -0.002 C 
ATOM      5  C   PHE A   3      -8.473  22.956  -6.765  0.60  1.91     0.597 C 
ATOM      6  O   PHE A   3      -8.527  21.729  -6.807 -0.57  1.66    -0.568 OA
ATOM      7  CB  PHE A   3      -8.746  24.836  -5.192 -0.03  1.91    -0.034 C 
ATOM      8  CG  PHE A   3      -9.655  24.298  -4.144  0.01  1.91     0.012 A 
ATOM      9  CD1 PHE A   3      -9.157  24.119  -2.873 -0.13  1.91    -0.126 A 
ATOM     10  CD2 PHE A   3     -10.973  23.999  -4.394 -0.13  1.91    -0.126 A 
ATOM     11  CE1 PHE A   3      -9.950  23.634  -1.863 -0.17  1.91    -0.170 A 
ATOM     12  CE2 PHE A   3     -11.773  23.513  -3.384 -0.17  1.91    -0.170 A 
ATOM     13  CZ  PHE A   3     -11.265  23.329  -2.119 -0.11  1.91    -0.107 A 
ATOM     14  HZ  PHE A   3     -11.849  22.975  -1.385  0.13  1.46     0.130 H 
ATOM     15  HA  PHE A   3      -7.683  23.035  -4.869  0.10  1.39     0.098 H 
ATOM     16  HE1 PHE A   3      -9.563  23.503  -0.940  0.14  1.46     0.143 H 
ATOM     17  HE2 PHE A   3     -12.748  23.288  -3.582  0.14  1.46     0.143 H 
ATOM     18  H   PHE A   3      -6.305  25.147  -6.362  0.27  0.60     0.272 HD
ATOM     19  HD2 PHE A   3     -11.353  24.135  -5.309  0.13  1.46     0.133 H 
ATOM     20  HD1 PHE A   3      -8.200  24.347  -2.679  0.13  1.46     0.133 H 
ATOM     21  HB3 PHE A   3      -9.273  25.099  -5.960  0.03  1.49     0.029 H 
ATOM     22  HB2 PHE A   3      -8.203  25.537  -4.806  0.03  1.49     0.029 H 
ATOM     23  N   LYS A   4      -8.907  23.725  -7.791 -0.35  1.82    -0.348 N 
ATOM     24  H   LYS A   4      -8.622  24.731  -7.699  0.27  0.60     0.275 HD
ENDROOT
BRANCH  23  25
ATOM     25  CA  LYS A   4      -9.680  23.209  -8.892 -0.24  1.91    -0.240 C 
ATOM     26  HA  LYS A   4      -9.638  22.224  -8.885  0.14  1.39     0.143 H 
BRANCH  25  27
ATOM     27  C   LYS A   4      -8.981  23.734 -10.089  0.73  1.91     0.734 C 
ATOM     28  N   ASN A   5      -7.644  23.567 -10.111 -0.38  1.82    -0.382 N 
ATOM     29  H   ASN A   5      -7.280  23.017  -9.302  0.27  0.60     0.268 HD
ATOM     30  O   LYS A   4      -9.621  24.272 -10.993 -0.59  1.66    -0.589 OA
BRANCH  28  31
ATOM     31  CA  ASN A   5      -6.829  24.104 -11.156 -0.21  1.91    -0.208 C 
ATOM     32  HA  ASN A   5      -7.404  24.678 -11.731  0.14  1.39     0.136 H 
BRANCH  31  33
ATOM     33  C   ASN A   5      -6.380  22.934 -12.012  0.81  1.91     0.805 C 
ATOM     34  OXT ASN A   5      -7.200  22.010 -12.261 -0.81  1.66    -0.815 OA
ATOM     35  O   ASN A   5      -5.197  22.972 -12.443 -0.81  1.66    -0.815 OA
ENDBRANCH  31  33
BRANCH  31  36
ATOM     36  CB  ASN A   5      -5.554  24.788 -10.616 -0.23  1.91    -0.230 C 
ATOM     37  HB3 ASN A   5      -4.931  24.085 -10.309  0.10  1.49     0.102 H 
ATOM     38  HB2 ASN A   5      -5.814  25.390  -9.878  0.10  1.49     0.102 H 
BRANCH  36  39
ATOM     39  CG  ASN A   5      -4.866  25.613 -11.702  0.72  1.91     0.715 C 
ATOM     40  OD1 ASN A   5      -5.121  25.463 -12.896 -0.60  1.66    -0.601 OA
ATOM     41  ND2 ASN A   5      -3.944  26.511 -11.264 -0.91  1.82    -0.908 N 
ATOM     42 1HD2 ASN A   5      -3.762  26.583 -10.291  0.41  0.60     0.415 HD
ATOM     43 2HD2 ASN A   5      -3.471  27.076 -11.924  0.41  0.60     0.415 HD
ENDBRANCH  36  39
ENDBRANCH  31  36
ENDBRANCH  28  31
ENDBRANCH  25  27
BRANCH  25  44
ATOM     44  CB  LYS A   4     -11.097  23.807  -8.963 -0.01  1.91    -0.009 C 
ATOM     45  HB3 LYS A   4     -11.537  23.463  -9.792  0.04  1.49     0.036 H 
ATOM     46  HB2 LYS A   4     -11.011  24.801  -9.019  0.04  1.49     0.036 H 
BRANCH  44  47
ATOM     47  CG  LYS A   4     -11.995  23.472  -7.771  0.02  1.91     0.019 C 
ATOM     48  HG3 LYS A   4     -11.467  23.588  -6.923  0.01  1.49     0.010 H 
ATOM     49  HG2 LYS A   4     -12.282  22.510  -7.840  0.01  1.49     0.010 H 
BRANCH  47  50
ATOM     50  CD  LYS A   4     -13.249  24.349  -7.689 -0.05  1.91    -0.048 C 
ATOM     51  HD3 LYS A   4     -13.995  23.805  -7.300  0.06  1.49     0.062 H 
ATOM     52  HD2 LYS A   4     -13.499  24.635  -8.616  0.06  1.49     0.062 H 
BRANCH  50  53
ATOM     53  CE  LYS A   4     -13.069  25.602  -6.830 -0.01  1.91    -0.014 C 
ATOM     54  HE2 LYS A   4     -13.945  26.073  -6.766  0.11  1.10     0.114 H 
ATOM     55  HE3 LYS A   4     -12.765  25.325  -5.922  0.11  1.10     0.114 H 
BRANCH  53  56
ATOM     56  NZ  LYS A   4     -12.064  26.499  -7.440 -0.39  1.82    -0.385 N 
ATOM     57  HZ3 LYS A   4     -12.509  27.100  -8.105  0.34  0.60     0.340 HD
ATOM     58  HZ1 LYS A   4     -11.364  25.954  -7.903  0.34  0.60     0.340 HD
ATOM     59  HZ2 LYS A   4     -11.633  27.055  -6.728  0.34  0.60     0.340 HD
ENDBRANCH  53  56
ENDBRANCH  50  53
ENDBRANCH  47  50
ENDBRANCH  44  47
ENDBRANCH  25  44
ENDBRANCH  23  25
BRANCH   1  60
ATOM     60  CA  PHE A   2      -4.050  24.066  -5.973 -0.00  1.91    -0.002 C 
ATOM     61  HA  PHE A   2      -4.204  24.786  -6.650  0.10  1.39     0.098 H 
BRANCH  60  62
ATOM     62  CB  PHE A   2      -3.178  22.902  -6.469 -0.03  1.91    -0.034 C 
ATOM     63  HB2 PHE A   2      -2.314  23.267  -6.717  0.03  1.49     0.029 H 
ATOM     64  HB3 PHE A   2      -3.150  22.236  -5.765  0.03  1.49     0.029 H 
BRANCH  62  65
ATOM     65  CG  PHE A   2      -3.814  22.307  -7.672  0.01  1.91     0.012 A 
ATOM     66  CD2 PHE A   2      -4.682  21.245  -7.563 -0.13  1.91    -0.126 A 
ATOM     67  HD2 PHE A   2      -4.890  20.865  -6.656  0.13  1.46     0.133 H 
ATOM     68  CE2 PHE A   2      -5.266  20.698  -8.680 -0.17  1.91    -0.170 A 
ATOM     69  CZ  PHE A   2      -4.985  21.213  -9.920 -0.11  1.91    -0.107 A 
ATOM     70  HE2 PHE A   2      -5.906  19.913  -8.581  0.14  1.46     0.143 H 
ATOM     71  HZ  PHE A   2      -5.403  20.821 -10.741  0.13  1.46     0.130 H 
ATOM     72  CE1 PHE A   2      -4.120  22.277 -10.031 -0.17  1.91    -0.170 A 
ATOM     73  HE1 PHE A   2      -3.908  22.667 -10.944  0.14  1.46     0.143 H 
ATOM     74  CD1 PHE A   2      -3.539  22.821  -8.914 -0.13  1.91    -0.126 A 
ATOM     75  HD1 PHE A   2      -2.914  23.593  -9.010  0.13  1.46     0.133 H 
ENDBRANCH  62  65
ENDBRANCH  60  62
BRANCH  60  76
ATOM     76  N   PHE A   2      -3.491  24.681  -4.810 -0.42  1.82    -0.416 N 
ATOM     77  C   HIS A   1      -3.832  25.948  -4.508  0.72  1.91     0.721 C 
ATOM     78  O   HIS A   1      -4.659  26.581  -5.162 -0.60  1.66    -0.601 OA
ATOM     79  H   PHE A   2      -2.834  24.243  -4.157  0.27  0.60     0.272 HD
BRANCH  77  80
ATOM     80  CA  HIS A   1      -3.178  26.556  -3.314  0.06  1.91     0.058 C 
ATOM     81  HA  HIS A   1      -3.876  26.995  -2.738  0.10  1.10     0.105 H 
BRANCH  80  82
ATOM     82  N   HIS A   1      -2.523  25.511  -2.500  0.26  1.82     0.256 N 
ATOM     83  H   HIS A   1      -2.132  24.819  -3.106  0.17  0.60     0.170 HD
ATOM     84  H3  HIS A   1      -3.201  25.088  -1.899  0.17  0.60     0.170 HD
ATOM     85  H2  HIS A   1      -1.798  25.927  -1.951  0.17  0.60     0.170 HD
ENDBRANCH  80  82
BRANCH  80  86
ATOM     86  CB  HIS A   1      -2.128  27.568  -3.799  0.05  1.91     0.048 C 
ATOM     87  HB3 HIS A   1      -1.477  27.097  -4.398  0.05  1.49     0.053 H 
ATOM     88  HB2 HIS A   1      -1.638  27.933  -3.005  0.05  1.49     0.053 H 
BRANCH  86  89
ATOM     89  CG  HIS A   1      -2.725  28.715  -4.557 -0.02  1.91    -0.024 A 
ATOM     90  ND1 HIS A   1      -3.010  28.687  -5.904 -0.15  1.82    -0.151 N 
ATOM     91  CE1 HIS A   1      -3.538  29.898  -6.218 -0.00  1.91    -0.001 A 
ATOM     92  HD1 HIS A   1      -2.868  27.949  -6.527  0.38  0.60     0.382 HD
ATOM     93  HE1 HIS A   1      -3.836  30.143  -7.155  0.26  1.36     0.265 H 
ATOM     94  NE2 HIS A   1      -3.610  30.699  -5.169 -0.17  1.82    -0.174 N 
ATOM     95  HE2 HIS A   1      -3.948  31.610  -5.132  0.39  0.60     0.392 HD
ATOM     96  CD2 HIS A   1      -3.097  29.951  -4.124 -0.14  1.91    -0.143 A 
ATOM     97  HD2 HIS A   1      -3.010  30.281  -3.168  0.25  1.41     0.249 H 
ENDBRANCH  86  89
ENDBRANCH  80  86
ENDBRANCH  77  80
ENDBRANCH  60  76
ENDBRANCH   1  60
TORSDOF 23
