REMARK  16 active torsions:
REMARK  status: ('A' for Active; 'I' for Inactive)
REMARK    1  A    between atoms: CA_2  and  C_3 
REMARK       I    between atoms: C_3  and  N_17 
REMARK    2  A    between atoms: N_17  and  CA_18 
REMARK    3  A    between atoms: CA_18  and  CB_21 
REMARK    4  A    between atoms: CA_18  and  C_19 
REMARK       I    between atoms: C_19  and  N_33 
REMARK    5  A    between atoms: CB_21  and  CG2_23 
REMARK    6  A    between atoms: CB_21  and  CG1_22 
REMARK       I    between atoms: N_33  and  CA_34 
REMARK       I    between atoms: CA_34  and  C_35 
REMARK       I    between atoms: CA_34  and  CB_37 
REMARK       I    between atoms: C_35  and  N_49 
REMARK       I    between atoms: CB_37  and  CG2_39 
REMARK       I    between atoms: CB_37  and  CG1_38 
REMARK       I    between atoms: N_49  and  CA_50 
REMARK       I    between atoms: CA_50  and  C_51 
REMARK       I    between atoms: CA_50  and  CB_54 
REMARK       I    between atoms: C_51  and  N_67 
REMARK       I    between atoms: CG_53  and  CB_54 
REMARK       I    between atoms: N_67  and  CA_68 
REMARK       I    between atoms: CA_68  and  CB_71 
REMARK       I    between atoms: CA_68  and  C_69 
REMARK       I    between atoms: C_69  and  N_87 
REMARK       I    between atoms: CB_71  and  CG_72 
REMARK       I    between atoms: N_87  and  CA_88 
REMARK       I    between atoms: CA_88  and  C_89 
REMARK       I    between atoms: CA_88  and  CB_91 
REMARK       I    between atoms: C_89  and  N_107 
REMARK       I    between atoms: CB_91  and  CG_92 
REMARK       I    between atoms: N_107  and  CA_108 
REMARK       I    between atoms: CA_108  and  C_109 
REMARK       I    between atoms: CA_108  and  CB_111 
REMARK       I    between atoms: C_109  and  N_129 
REMARK       I    between atoms: CB_111  and  CG_112 
REMARK       I    between atoms: CG_112  and  CD_113 
REMARK       I    between atoms: CD_113  and  CE_114 
REMARK       I    between atoms: CE_114  and  NZ_115 
REMARK       I    between atoms: N_129  and  CA_130 
REMARK       I    between atoms: CA_130  and  C_131 
REMARK       I    between atoms: CA_130  and  CB_133 
REMARK       I    between atoms: C_131  and  N_143 
REMARK       I    between atoms: CB_133  and  CG_134 
REMARK       I    between atoms: CG_134  and  ND2_140 
REMARK       I    between atoms: N_143  and  CA_144 
REMARK       I    between atoms: CA_144  and  C_145 
REMARK       I    between atoms: CA_144  and  CB_147 
REMARK       I    between atoms: C_145  and  N_162 
REMARK       I    between atoms: CB_147  and  CG1_148 
REMARK       I    between atoms: CB_147  and  CG2_149 
REMARK       I    between atoms: CG1_148  and  CD1_150 
REMARK    7  A    between atoms: N_162  and  CA_163 
REMARK    8  A    between atoms: CA_163  and  C_164 
REMARK    9  A    between atoms: CA_163  and  CB_166 
REMARK       I    between atoms: C_164  and  N_178 
REMARK   10  A    between atoms: CB_166  and  CG1_167 
REMARK   11  A    between atoms: CB_166  and  CG2_168 
REMARK   12  A    between atoms: N_178  and  CA_179 
REMARK   13  A    between atoms: CA_179  and  CB_182 
REMARK   14  A    between atoms: CA_179  and  C_180 
REMARK   15  A    between atoms: CB_182  and  CG2_184 
REMARK   16  A    between atoms: CB_182  and  OG1_183 
ROOT
ATOM      1  C   VAL A   2       2.820  24.275  -2.267  0.60  1.91     0.597 C 
ATOM      2  O   VAL A   2       2.689  24.894  -1.212 -0.57  1.66    -0.568 OA
ATOM      3  N   VAL A   3       1.888  24.279  -3.236 -0.42  1.82    -0.416 N 
ATOM      4  CA  VAL A   3       0.645  24.968  -3.087 -0.09  1.91    -0.087 C 
ATOM      5  C   VAL A   3      -0.347  23.998  -2.531  0.60  1.91     0.597 C 
ATOM      6  O   VAL A   3      -0.229  22.790  -2.730 -0.57  1.66    -0.568 OA
ATOM      7  CB  VAL A   3       0.131  25.513  -4.387  0.30  1.91     0.298 C 
ATOM      8  CG1 VAL A   3       1.105  26.605  -4.862 -0.32  1.91    -0.319 C 
ATOM      9  CG2 VAL A   3      -0.001  24.353  -5.389 -0.32  1.91    -0.319 C 
ATOM     10  HA  VAL A   3       0.766  25.709  -2.426  0.10  1.39     0.097 H 
ATOM     11 1HG1 VAL A   3       0.685  27.499  -4.724  0.08  1.49     0.079 H 
ATOM     12 1HG2 VAL A   3      -0.967  24.134  -5.503  0.08  1.49     0.079 H 
ATOM     13  HB  VAL A   3      -0.732  25.967  -4.228 -0.03  1.49    -0.030 H 
ATOM     14 2HG1 VAL A   3       1.948  26.541  -4.334  0.08  1.49     0.079 H 
ATOM     15 3HG1 VAL A   3       1.300  26.469  -5.830  0.08  1.49     0.079 H 
ATOM     16  H   VAL A   3       2.165  23.738  -4.085  0.27  0.60     0.272 HD
ATOM     17 3HG2 VAL A   3       0.392  24.635  -6.261  0.08  1.49     0.079 H 
ATOM     18 2HG2 VAL A   3       0.490  23.562  -5.032  0.08  1.49     0.079 H 
ATOM     19  N   HIS A   4      -1.340  24.508  -1.776 -0.35  1.82    -0.348 N 
ATOM     20  CA  HIS A   4      -2.337  23.649  -1.206 -0.14  1.91    -0.135 C 
ATOM     21  C   HIS A   4      -3.668  24.141  -1.676  0.73  1.91     0.734 C 
ATOM     22  O   HIS A   4      -3.814  25.302  -2.056 -0.59  1.66    -0.589 OA
ATOM     23  CG  HIS A   4      -2.480  25.005   0.939 -0.00  1.91    -0.001 A 
ATOM     24  CB  HIS A   4      -2.345  23.641   0.333 -0.04  1.91    -0.041 C 
ATOM     25  HB2 HIS A   4      -3.112  23.075   0.650  0.08  1.49     0.081 H 
ATOM     26  HB3 HIS A   4      -1.487  23.233   0.658  0.08  1.49     0.081 H 
ATOM     27  H   HIS A   4      -1.303  25.533  -1.661  0.27  0.60     0.275 HD
ATOM     28  HA  HIS A   4      -2.198  22.721  -1.547  0.12  1.39     0.121 H 
ATOM     29  CD2 HIS A   4      -1.521  25.854   1.400 -0.11  1.91    -0.114 A 
ATOM     30  HE2 HIS A   4      -1.634  27.782   2.272  0.39  0.60     0.391 HD
ATOM     31  HD1 HIS A   4      -4.574  25.325   0.920  0.39  0.60     0.387 HD
ATOM     32  HD2 HIS A   4      -0.524  25.663   1.389  0.23  1.41     0.232 H 
ATOM     33  CE1 HIS A   4      -3.390  26.848   1.708 -0.02  1.91    -0.017 A 
ATOM     34  ND1 HIS A   4      -3.680  25.651   1.139 -0.15  1.82    -0.151 N 
ATOM     35  NE2 HIS A   4      -2.092  27.016   1.886 -0.17  1.82    -0.172 N 
ATOM     36  HE1 HIS A   4      -4.101  27.525   1.960  0.27  1.36     0.268 H 
ATOM     37  N   PHE A   5      -4.683  23.253  -1.663 -0.42  1.82    -0.416 N 
ATOM     38  CA  PHE A   5      -5.978  23.603  -2.171 -0.00  1.91    -0.002 C 
ATOM     39  C   PHE A   5      -6.765  24.102  -1.002  0.60  1.91     0.597 C 
ATOM     40  O   PHE A   5      -6.849  23.438   0.031 -0.57  1.66    -0.568 OA
ATOM     41  CB  PHE A   5      -6.696  22.377  -2.764 -0.03  1.91    -0.034 C 
ATOM     42  CG  PHE A   5      -7.744  22.826  -3.722  0.01  1.91     0.012 A 
ATOM     43  CD1 PHE A   5      -7.394  23.108  -5.023 -0.13  1.91    -0.126 A 
ATOM     44  CD2 PHE A   5      -9.059  22.953  -3.340 -0.13  1.91    -0.126 A 
ATOM     45  CE1 PHE A   5      -8.339  23.519  -5.933 -0.17  1.91    -0.170 A 
ATOM     46  CE2 PHE A   5     -10.009  23.364  -4.246 -0.17  1.91    -0.170 A 
ATOM     47  CZ  PHE A   5      -9.650  23.647  -5.543 -0.11  1.91    -0.107 A 
ATOM     48  HZ  PHE A   5     -10.342  23.946  -6.206  0.13  1.46     0.130 H 
ATOM     49  HA  PHE A   5      -5.856  24.370  -2.793  0.10  1.39     0.098 H 
ATOM     50  HE1 PHE A   5      -8.063  23.726  -6.882  0.14  1.46     0.143 H 
ATOM     51  HE2 PHE A   5     -10.979  23.459  -3.950  0.14  1.46     0.143 H 
ATOM     52  H   PHE A   5      -4.433  22.331  -1.263  0.27  0.60     0.272 HD
ATOM     53  HD2 PHE A   5      -9.327  22.744  -2.398  0.13  1.46     0.133 H 
ATOM     54  HD1 PHE A   5      -6.441  23.013  -5.314  0.13  1.46     0.133 H 
ATOM     55  HB3 PHE A   5      -7.123  21.903  -2.030  0.03  1.49     0.029 H 
ATOM     56  HB2 PHE A   5      -6.034  21.853  -3.246  0.03  1.49     0.029 H 
ATOM     57  N   PHE A   6      -7.315  25.329  -1.104 -0.42  1.82    -0.416 N 
ATOM     58  CA  PHE A   6      -7.997  25.836   0.048 -0.00  1.91    -0.002 C 
ATOM     59  C   PHE A   6      -9.260  25.077   0.315  0.60  1.91     0.597 C 
ATOM     60  O   PHE A   6      -9.401  24.450   1.365 -0.57  1.66    -0.568 OA
ATOM     61  CB  PHE A   6      -8.373  27.321  -0.074 -0.03  1.91    -0.034 C 
ATOM     62  CG  PHE A   6      -8.671  27.775   1.312  0.01  1.91     0.012 A 
ATOM     63  CD1 PHE A   6      -9.935  27.667   1.841 -0.13  1.91    -0.126 A 
ATOM     64  CD2 PHE A   6      -7.664  28.297   2.091 -0.13  1.91    -0.126 A 
ATOM     65  CE1 PHE A   6     -10.190  28.086   3.126 -0.17  1.91    -0.170 A 
ATOM     66  CE2 PHE A   6      -7.914  28.718   3.376 -0.17  1.91    -0.170 A 
ATOM     67  CZ  PHE A   6      -9.181  28.614   3.896 -0.11  1.91    -0.107 A 
ATOM     68  HZ  PHE A   6      -9.373  28.920   4.831  0.13  1.46     0.130 H 
ATOM     69  HA  PHE A   6      -7.389  25.689   0.845  0.10  1.39     0.098 H 
ATOM     70  HE1 PHE A   6     -11.128  28.003   3.500  0.14  1.46     0.143 H 
ATOM     71  HE2 PHE A   6      -7.158  29.106   3.935  0.14  1.46     0.143 H 
ATOM     72  H   PHE A   6      -7.199  25.793  -1.993  0.27  0.60     0.272 HD
ATOM     73  HD2 PHE A   6      -6.734  28.371   1.716  0.13  1.46     0.133 H 
ATOM     74  HD1 PHE A   6     -10.675  27.282   1.294  0.13  1.46     0.133 H 
ATOM     75  HB3 PHE A   6      -9.172  27.378  -0.599  0.03  1.49     0.029 H 
ATOM     76  HB2 PHE A   6      -7.605  27.792  -0.398  0.03  1.49     0.029 H 
ATOM     77  N   LYS A   7     -10.197  25.072  -0.658 -0.35  1.82    -0.348 N 
ATOM     78  CA  LYS A   7     -11.462  24.428  -0.438 -0.24  1.91    -0.240 C 
ATOM     79  C   LYS A   7     -12.371  24.989  -1.485  0.73  1.91     0.734 C 
ATOM     80  O   LYS A   7     -13.578  24.744  -1.491 -0.59  1.66    -0.589 OA
ATOM     81  CB  LYS A   7     -12.077  24.826   0.914 -0.01  1.91    -0.009 C 
ATOM     82  CG  LYS A   7     -13.026  23.785   1.499  0.02  1.91     0.019 C 
ATOM     83  CD  LYS A   7     -12.274  22.566   2.034 -0.05  1.91    -0.048 C 
ATOM     84  CE  LYS A   7     -11.254  22.927   3.118 -0.01  1.91    -0.014 C 
ATOM     85  NZ  LYS A   7     -10.391  21.763   3.417 -0.39  1.82    -0.385 N 
ATOM     86  HA  LYS A   7     -11.365  23.452  -0.576  0.14  1.39     0.143 H 
ATOM     87  HE2 LYS A   7     -10.695  23.684   2.789  0.11  1.10     0.114 H 
ATOM     88  HE3 LYS A   7     -11.747  23.200   3.940  0.11  1.10     0.114 H 
ATOM     89  HG2 LYS A   7     -13.541  24.199   2.250  0.01  1.49     0.010 H 
ATOM     90  HG3 LYS A   7     -13.660  23.484   0.787  0.01  1.49     0.010 H 
ATOM     91  HZ1 LYS A   7      -9.454  22.074   3.585  0.34  0.60     0.340 HD
ATOM     92  HZ3 LYS A   7     -10.734  21.291   4.230  0.34  0.60     0.340 HD
ATOM     93  HZ2 LYS A   7     -10.397  21.132   2.640  0.34  0.60     0.340 HD
ATOM     94  HD3 LYS A   7     -11.788  22.130   1.279  0.06  1.49     0.062 H 
ATOM     95  HD2 LYS A   7     -12.935  21.927   2.424  0.06  1.49     0.062 H 
ATOM     96  H   LYS A   7      -9.917  25.554  -1.523  0.27  0.60     0.275 HD
ATOM     97  HB3 LYS A   7     -12.584  25.676   0.785  0.04  1.49     0.036 H 
ATOM     98  HB2 LYS A   7     -11.333  24.971   1.562  0.04  1.49     0.036 H 
ATOM     99  N   ASN A   8     -11.777  25.739  -2.430 -0.42  1.82    -0.416 N 
ATOM    100  CA  ASN A   8     -12.497  26.410  -3.471  0.01  1.91     0.014 C 
ATOM    101  C   ASN A   8     -13.336  27.502  -2.897  0.60  1.91     0.597 C 
ATOM    102  O   ASN A   8     -14.284  27.955  -3.537 -0.57  1.66    -0.568 OA
ATOM    103  CB  ASN A   8     -13.409  25.493  -4.305 -0.20  1.91    -0.204 C 
ATOM    104  CG  ASN A   8     -12.543  24.792  -5.339  0.71  1.91     0.713 C 
ATOM    105  HA  ASN A   8     -11.817  26.840  -4.080  0.10  1.39     0.105 H 
ATOM    106  H   ASN A   8     -10.730  25.781  -2.324  0.27  0.60     0.272 HD
ATOM    107  HB3 ASN A   8     -14.068  26.046  -4.764  0.08  1.49     0.080 H 
ATOM    108  HB2 ASN A   8     -13.801  24.825  -3.713  0.08  1.49     0.080 H 
ATOM    109  OD1 ASN A   8     -11.701  25.417  -5.984 -0.59  1.66    -0.593 OA
ATOM    110  ND2 ASN A   8     -12.754  23.461  -5.512 -0.92  1.82    -0.919 N 
ATOM    111 2HD2 ASN A   8     -12.215  22.962  -6.165  0.42  0.60     0.420 HD
ATOM    112 1HD2 ASN A   8     -13.459  23.011  -4.968  0.42  0.60     0.420 HD
ATOM    113  N   ILE A   9     -13.077  27.918  -1.645 -0.42  1.82    -0.416 N 
ATOM    114  CA  ILE A   9     -13.777  29.086  -1.201 -0.06  1.91    -0.060 C 
ATOM    115  C   ILE A   9     -13.121  30.304  -1.773  0.60  1.91     0.597 C 
ATOM    116  O   ILE A   9     -13.771  31.144  -2.393 -0.57  1.66    -0.568 OA
ATOM    117  CB  ILE A   9     -13.854  29.208   0.298  0.13  1.91     0.130 C 
ATOM    118  CG1 ILE A   9     -12.463  29.310   0.942 -0.04  1.91    -0.043 C 
ATOM    119  CG2 ILE A   9     -14.689  28.028   0.820 -0.32  1.91    -0.320 C 
ATOM    120  CD1 ILE A   9     -12.516  29.746   2.405 -0.07  1.91    -0.066 C 
ATOM    121  HA  ILE A   9     -14.698  29.037  -1.597  0.09  1.39     0.087 H 
ATOM    122 2HG2 ILE A   9     -14.814  28.139   1.802  0.09  1.49     0.088 H 
ATOM    123 1HG2 ILE A   9     -15.570  28.034   0.355  0.09  1.49     0.088 H 
ATOM    124  HB  ILE A   9     -14.352  30.049   0.530  0.02  1.49     0.019 H 
ATOM    125 2HG1 ILE A   9     -12.023  28.422   0.888  0.02  1.49     0.024 H 
ATOM    126 3HG1 ILE A   9     -11.930  29.977   0.433  0.02  1.49     0.024 H 
ATOM    127 3HD1 ILE A   9     -13.047  29.080   2.923  0.02  1.49     0.019 H 
ATOM    128  H   ILE A   9     -12.412  27.374  -1.122  0.27  0.60     0.272 HD
ATOM    129 2HD1 ILE A   9     -11.587  29.793   2.763  0.02  1.49     0.019 H 
ATOM    130 3HG2 ILE A   9     -14.199  27.183   0.625  0.09  1.49     0.088 H 
ATOM    131 1HD1 ILE A   9     -12.948  30.643   2.460  0.02  1.49     0.019 H 
ATOM    132  N   VAL A  10     -11.794  30.426  -1.562 -0.42  1.82    -0.416 N 
ATOM    133  H   VAL A  10     -11.387  29.637  -1.010  0.27  0.60     0.272 HD
ENDROOT
BRANCH 132 134
ATOM    134  CA  VAL A  10     -11.039  31.539  -2.057 -0.09  1.91    -0.087 C 
ATOM    135  HA  VAL A  10     -11.560  32.377  -1.882  0.10  1.39     0.097 H 
BRANCH 134 136
ATOM    136  C   VAL A  10     -10.887  31.370  -3.521  0.60  1.91     0.597 C 
ATOM    137  N   THR A  11     -10.571  30.132  -3.916 -0.38  1.82    -0.382 N 
ATOM    138  H   THR A  11     -10.518  29.441  -3.141  0.27  0.60     0.268 HD
ATOM    139  O   VAL A  10     -11.082  32.293  -4.310 -0.57  1.66    -0.568 OA
BRANCH 137 140
ATOM    140  CA  THR A  11     -10.338  29.839  -5.285 -0.24  1.91    -0.242 C 
ATOM    141  HA  THR A  11      -9.876  28.939  -5.365  0.12  1.39     0.121 H 
BRANCH 140 142
ATOM    142  CB  THR A  11     -11.592  29.699  -6.090  0.30  1.91     0.302 C 
ATOM    143  HB  THR A  11     -11.351  29.492  -7.071  0.01  1.39     0.008 H 
BRANCH 142 144
ATOM    144  CG2 THR A  11     -12.412  28.553  -5.488 -0.19  1.91    -0.185 C 
ATOM    145 2HG2 THR A  11     -12.442  27.788  -6.133  0.06  1.49     0.059 H 
ATOM    146 3HG2 THR A  11     -13.344  28.869  -5.303  0.06  1.49     0.059 H 
ATOM    147 1HG2 THR A  11     -11.987  28.251  -4.633  0.06  1.49     0.059 H 
ENDBRANCH 142 144
BRANCH 142 148
ATOM    148  OG1 THR A  11     -12.336  30.906  -6.073 -0.65  1.72    -0.650 OA
ATOM    149  HG1 THR A  11     -11.937  31.562  -5.420  0.41  0.00     0.412 HD
ENDBRANCH 142 148
ENDBRANCH 140 142
BRANCH 140 150
ATOM    150  C   THR A  11      -9.436  30.879  -5.945  0.78  1.91     0.781 C 
ATOM    151  OXT THR A  11      -9.860  31.457  -6.980 -0.80  1.66    -0.804 OA
ATOM    152  O   THR A  11      -8.315  31.109  -5.417 -0.80  1.66    -0.804 OA
ENDBRANCH 140 150
ENDBRANCH 137 140
ENDBRANCH 134 136
BRANCH 134 153
ATOM    153  CB  VAL A  10      -9.679  31.654  -1.423  0.30  1.91     0.298 C 
ATOM    154  HB  VAL A  10      -9.210  32.433  -1.808 -0.03  1.49    -0.030 H 
BRANCH 153 155
ATOM    155  CG1 VAL A  10      -9.877  31.969   0.070 -0.32  1.91    -0.319 C 
ATOM    156 3HG1 VAL A  10     -10.854  32.019   0.266  0.08  1.49     0.079 H 
ATOM    157 2HG1 VAL A  10      -9.444  32.843   0.279  0.08  1.49     0.079 H 
ATOM    158 1HG1 VAL A  10      -9.459  31.245   0.614  0.08  1.49     0.079 H 
ENDBRANCH 153 155
BRANCH 153 159
ATOM    159  CG2 VAL A  10      -8.884  30.358  -1.665 -0.32  1.91    -0.319 C 
ATOM    160 3HG2 VAL A  10      -7.914  30.582  -1.725  0.08  1.49     0.079 H 
ATOM    161 1HG2 VAL A  10      -9.194  29.945  -2.518  0.08  1.49     0.079 H 
ATOM    162 2HG2 VAL A  10      -9.046  29.735  -0.904  0.08  1.49     0.079 H 
ENDBRANCH 153 159
ENDBRANCH 134 153
ENDBRANCH 132 134
BRANCH   1 163
ATOM    163  CA  VAL A   2       4.049  23.489  -2.567 -0.09  1.91    -0.087 C 
ATOM    164  HA  VAL A   2       4.051  23.264  -3.546  0.10  1.39     0.097 H 
BRANCH 163 165
ATOM    165  CB  VAL A   2       3.994  22.217  -1.772  0.30  1.91     0.298 C 
ATOM    166  HB  VAL A   2       3.136  21.754  -1.962 -0.03  1.49    -0.030 H 
BRANCH 165 167
ATOM    167  CG2 VAL A   2       4.129  22.582  -0.287 -0.32  1.91    -0.319 C 
ATOM    168 3HG2 VAL A   2       3.281  22.346   0.182  0.08  1.49     0.079 H 
ATOM    169 1HG2 VAL A   2       4.302  23.561  -0.209  0.08  1.49     0.079 H 
ATOM    170 2HG2 VAL A   2       4.890  22.069   0.104  0.08  1.49     0.079 H 
ENDBRANCH 165 167
BRANCH 165 171
ATOM    171  CG1 VAL A   2       5.104  21.272  -2.253 -0.32  1.91    -0.319 C 
ATOM    172 2HG1 VAL A   2       5.678  21.751  -2.914  0.08  1.49     0.079 H 
ATOM    173 1HG1 VAL A   2       4.690  20.472  -2.682  0.08  1.49     0.079 H 
ATOM    174 3HG1 VAL A   2       5.654  20.988  -1.471  0.08  1.49     0.079 H 
ENDBRANCH 165 171
ENDBRANCH 163 165
BRANCH 163 175
ATOM    175  N   VAL A   2       5.189  24.300  -2.284 -0.42  1.82    -0.416 N 
ATOM    176  H   VAL A   2       5.824  24.178  -1.480  0.27  0.60     0.272 HD
ATOM    177  C   PRO A   1       5.509  25.320  -3.097  0.53  1.91     0.526 C 
ATOM    178  O   PRO A   1       4.858  25.611  -4.098 -0.50  1.66    -0.500 OA
BRANCH 177 179
ATOM    179  CA  PRO A   1       6.706  26.138  -2.748  0.10  1.91     0.100 C 
ATOM    180  N   PRO A   1       7.387  26.420  -4.040 -0.20  1.82    -0.202 N 
ATOM    181  CD  PRO A   1       7.165  27.859  -4.412 -0.01  1.91    -0.012 C 
ATOM    182  H2  PRO A   1       8.302  26.075  -4.023  0.31  0.60     0.312 HD
ATOM    183  H   PRO A   1       6.856  26.042  -4.783  0.31  0.60     0.312 HD
ATOM    184  HD3 PRO A   1       8.027  28.368  -4.349  0.10  1.10     0.100 H 
ATOM    185  HD2 PRO A   1       6.814  27.922  -5.348  0.10  1.10     0.100 H 
ATOM    186  CG  PRO A   1       6.138  28.388  -3.402 -0.12  1.91    -0.121 C 
ATOM    187  HG2 PRO A   1       5.215  28.296  -3.757  0.10  1.49     0.100 H 
ATOM    188  HG3 PRO A   1       6.329  29.334  -3.168  0.10  1.49     0.100 H 
ATOM    189  CB  PRO A   1       6.318  27.495  -2.169 -0.12  1.91    -0.115 C 
ATOM    190  HB2 PRO A   1       5.462  27.443  -1.660  0.10  1.49     0.100 H 
ATOM    191  HB3 PRO A   1       7.038  27.862  -1.586  0.10  1.49     0.100 H 
ATOM    192  HA  PRO A   1       7.318  25.670  -2.135  0.10  1.10     0.100 H 
ENDBRANCH 177 179
ENDBRANCH 163 175
ENDBRANCH   1 163
TORSDOF 50
