MODEL 1
REMARK VINA RESULT:      -7.5      0.000      0.000
REMARK  15 active torsions:
REMARK  status: ('A' for Active; 'I' for Inactive)
REMARK    1  A    between atoms: N_1  and  CA_2 
REMARK    2  A    between atoms: CA_2  and  CB_5 
REMARK    3  A    between atoms: CA_2  and  C_3 
REMARK       I    between atoms: C_3  and  N_23 
REMARK    4  A    between atoms: CB_5  and  CG_6 
REMARK    5  A    between atoms: N_23  and  CA_24 
REMARK    6  A    between atoms: CA_24  and  C_25 
REMARK    7  A    between atoms: CA_24  and  CB_27 
REMARK       I    between atoms: C_25  and  N_43 
REMARK    8  A    between atoms: CB_27  and  CG_28 
REMARK    9  A    between atoms: N_43  and  CA_44 
REMARK   10  A    between atoms: CA_44  and  CB_47 
REMARK   11  A    between atoms: CA_44  and  C_45 
REMARK   12  A    between atoms: CB_47  and  CG_48 
REMARK   13  A    between atoms: CG_48  and  CD_49 
REMARK   14  A    between atoms: CD_49  and  CE_50 
REMARK   15  A    between atoms: CE_50  and  NZ_51 
ROOT
ATOM      1  CA  PHE A   2      -8.908  24.230  -3.045 -0.00  1.91    -0.002 C 
ATOM      2  HA  PHE A   2      -8.838  23.435  -2.436  0.10  1.39     0.098 H 
ENDROOT
BRANCH   1   3
ATOM      3  C   PHE A   2      -9.436  23.747  -4.356  0.60  1.91     0.597 C 
ATOM      4  O   PHE A   2      -9.175  22.580  -4.756 -0.57  1.66    -0.568 OA
ATOM      5  N   LYS A   3     -10.230  24.626  -5.155 -0.35  1.82    -0.348 N 
ATOM      6  H   LYS A   3     -10.349  25.548  -4.704  0.28  0.60     0.276 HD
BRANCH   5   7
ATOM      7  CA  LYS A   3     -10.785  24.232  -6.440 -0.29  1.91    -0.290 C 
ATOM      8  HA  LYS A   3     -10.750  23.229  -6.513  0.14  1.39     0.144 H 
BRANCH   7   9
ATOM      9  CB  LYS A   3     -12.238  24.675  -6.537 -0.05  1.91    -0.054 C 
ATOM     10  HB3 LYS A   3     -12.739  24.001  -7.052  0.05  1.49     0.048 H 
ATOM     11  HB2 LYS A   3     -12.270  25.562  -6.962  0.05  1.49     0.048 H 
BRANCH   9  12
ATOM     12  CG  LYS A   3     -12.855  24.782  -5.153  0.02  1.91     0.023 C 
ATOM     13  HG2 LYS A   3     -12.938  23.870  -4.760  0.01  1.49     0.013 H 
ATOM     14  HG3 LYS A   3     -12.272  25.349  -4.578  0.01  1.49     0.013 H 
BRANCH  12  15
ATOM     15  CD  LYS A   3     -14.236  25.413  -5.230 -0.04  1.91    -0.039 C 
ATOM     16  HD2 LYS A   3     -14.486  25.525  -6.186  0.06  1.49     0.061 H 
ATOM     17  HD3 LYS A   3     -14.888  24.823  -4.767  0.06  1.49     0.061 H 
BRANCH  15  18
ATOM     18  CE  LYS A   3     -14.256  26.778  -4.560 -0.02  1.91    -0.018 C 
ATOM     19  HE2 LYS A   3     -14.542  27.458  -5.237  0.11  1.10     0.112 H 
ATOM     20  HE3 LYS A   3     -14.923  26.755  -3.814  0.11  1.10     0.112 H 
BRANCH  18  21
ATOM     21  NZ  LYS A   3     -12.938  27.106  -4.045 -0.37  1.82    -0.374 N 
ATOM     22  HZ3 LYS A   3     -12.505  26.289  -3.649  0.34  0.60     0.337 HD
ATOM     23  HZ1 LYS A   3     -13.008  27.811  -3.330  0.34  0.60     0.337 HD
ATOM     24  HZ2 LYS A   3     -12.350  27.454  -4.784  0.34  0.60     0.337 HD
ENDBRANCH  18  21
ENDBRANCH  15  18
ENDBRANCH  12  15
ENDBRANCH   9  12
ENDBRANCH   7   9
BRANCH   7  25
ATOM     25  C   LYS A   3      -9.976  24.840  -7.539  0.85  1.91     0.849 C 
ATOM     26  OXT LYS A   3     -10.500  25.870  -8.311 -0.83  1.66    -0.825 OA
ATOM     27  O   LYS A   3      -8.812  24.419  -7.763 -0.83  1.66    -0.825 OA
ENDBRANCH   7  25
ENDBRANCH   5   7
ENDBRANCH   1   3
BRANCH   1  28
ATOM     28  CB  PHE A   2      -9.807  25.318  -2.463 -0.03  1.91    -0.034 C 
ATOM     29  HB3 PHE A   2     -10.384  25.650  -3.182  0.03  1.49     0.029 H 
ATOM     30  HB2 PHE A   2      -9.231  26.016  -2.086  0.03  1.49     0.029 H 
BRANCH  28  31
ATOM     31  CG  PHE A   2     -10.674  24.783  -1.371  0.01  1.91     0.012 A 
ATOM     32  CD2 PHE A   2     -10.132  24.451  -0.122 -0.13  1.91    -0.126 A 
ATOM     33  HD2 PHE A   2      -9.162  24.582   0.046  0.13  1.46     0.133 H 
ATOM     34  CE2 PHE A   2     -10.952  23.937   0.885 -0.17  1.91    -0.170 A 
ATOM     35  HE2 PHE A   2     -10.555  23.705   1.784  0.14  1.46     0.143 H 
ATOM     36  CZ  PHE A   2     -12.316  23.747   0.645 -0.11  1.91    -0.107 A 
ATOM     37  HZ  PHE A   2     -12.906  23.381   1.361  0.13  1.46     0.130 H 
ATOM     38  CE1 PHE A   2     -12.859  24.069  -0.603 -0.17  1.91    -0.170 A 
ATOM     39  HE1 PHE A   2     -13.837  23.935  -0.782  0.14  1.46     0.143 H 
ATOM     40  CD1 PHE A   2     -12.037  24.584  -1.611 -0.13  1.91    -0.126 A 
ATOM     41  HD1 PHE A   2     -12.425  24.805  -2.492  0.13  1.46     0.133 H 
ENDBRANCH  28  31
ENDBRANCH   1  28
BRANCH   1  42
ATOM     42  N   PHE A   2      -7.556  24.742  -3.221 -0.42  1.82    -0.416 N 
ATOM     43  H   PHE A   2      -7.281  25.514  -3.848  0.27  0.60     0.272 HD
ATOM     44  C   PHE A   1      -6.432  24.206  -2.516  0.61  1.91     0.612 C 
ATOM     45  O   PHE A   1      -6.574  23.234  -1.729 -0.57  1.66    -0.571 OA
BRANCH  44  46
ATOM     46  CA  PHE A   1      -5.075  24.793  -2.714  0.07  1.91     0.073 C 
ATOM     47  HA  PHE A   1      -5.188  25.655  -3.219  0.10  1.10     0.104 H 
BRANCH  46  48
ATOM     48  N   PHE A   1      -4.495  25.137  -1.427  0.17  1.82     0.174 N 
ATOM     49  H2  PHE A   1      -4.249  26.109  -1.408  0.19  0.60     0.192 HD
ATOM     50  H3  PHE A   1      -5.152  24.955  -0.692  0.19  0.60     0.192 HD
ATOM     51  H   PHE A   1      -3.669  24.591  -1.263  0.19  0.60     0.192 HD
ENDBRANCH  46  48
BRANCH  46  52
ATOM     52  CB  PHE A   1      -4.177  23.804  -3.448  0.03  1.91     0.033 C 
ATOM     53  HB2 PHE A   1      -3.289  24.210  -3.535  0.01  1.49     0.010 H 
ATOM     54  HB3 PHE A   1      -4.166  22.969  -2.935  0.01  1.49     0.010 H 
BRANCH  52  55
ATOM     55  CG  PHE A   1      -4.696  23.509  -4.816  0.00  1.91     0.003 A 
ATOM     56  CD2 PHE A   1      -4.388  24.372  -5.874 -0.14  1.91    -0.139 A 
ATOM     57  HD2 PHE A   1      -3.836  25.180  -5.709  0.14  1.46     0.137 H 
ATOM     58  CE2 PHE A   1      -4.858  24.098  -7.161 -0.16  1.91    -0.160 A 
ATOM     59  HE2 PHE A   1      -4.635  24.726  -7.919  0.14  1.46     0.143 H 
ATOM     60  CZ  PHE A   1      -5.632  22.957  -7.395 -0.12  1.91    -0.121 A 
ATOM     61  HZ  PHE A   1      -5.970  22.760  -8.313  0.13  1.46     0.133 H 
ATOM     62  CE1 PHE A   1      -5.936  22.089  -6.342 -0.16  1.91    -0.160 A 
ATOM     63  HE1 PHE A   1      -6.489  21.268  -6.504  0.14  1.46     0.143 H 
ATOM     64  CD1 PHE A   1      -5.467  22.363  -5.054 -0.14  1.91    -0.139 A 
ATOM     65  HD1 PHE A   1      -5.682  21.748  -4.312  0.14  1.46     0.137 H 
ENDBRANCH  52  55
ENDBRANCH  46  52
ENDBRANCH  44  46
ENDBRANCH   1  42
TORSDOF 15
ENDMDL
