MODEL 1
REMARK VINA RESULT:      -7.0      0.000      0.000
REMARK  15 active torsions:
REMARK  status: ('A' for Active; 'I' for Inactive)
REMARK    1  A    between atoms: N_1  and  CA_2 
REMARK    2  A    between atoms: CA_2  and  CB_5 
REMARK    3  A    between atoms: CA_2  and  C_3 
REMARK       I    between atoms: C_3  and  N_23 
REMARK    4  A    between atoms: CB_5  and  CG_6 
REMARK    5  A    between atoms: N_23  and  CA_24 
REMARK    6  A    between atoms: CA_24  and  C_25 
REMARK    7  A    between atoms: CA_24  and  CB_27 
REMARK       I    between atoms: C_25  and  N_43 
REMARK    8  A    between atoms: CB_27  and  CG_28 
REMARK    9  A    between atoms: N_43  and  CA_44 
REMARK   10  A    between atoms: CA_44  and  CB_47 
REMARK   11  A    between atoms: CA_44  and  C_45 
REMARK   12  A    between atoms: CB_47  and  CG_48 
REMARK   13  A    between atoms: CG_48  and  CD_49 
REMARK   14  A    between atoms: CD_49  and  CE_50 
REMARK   15  A    between atoms: CE_50  and  NZ_51 
ROOT
ATOM      1  CA  PHE A   2      -8.676  24.700  -3.103 -0.00  1.91    -0.002 C 
ATOM      2  HA  PHE A   2      -8.804  25.619  -3.487  0.10  1.39     0.098 H 
ENDROOT
BRANCH   1   3
ATOM      3  C   PHE A   2      -9.454  24.632  -1.830  0.60  1.91     0.597 C 
ATOM      4  O   PHE A   2      -8.981  24.030  -0.827 -0.57  1.66    -0.568 OA
ATOM      5  N   LYS A   3     -10.741  25.247  -1.765 -0.35  1.82    -0.348 N 
ATOM      6  H   LYS A   3     -10.998  25.690  -2.662  0.28  0.60     0.276 HD
BRANCH   5   7
ATOM      7  CA  LYS A   3     -11.560  25.230  -0.563 -0.29  1.91    -0.290 C 
ATOM      8  HA  LYS A   3     -10.962  25.354   0.236  0.14  1.39     0.144 H 
BRANCH   7   9
ATOM      9  CB  LYS A   3     -12.564  26.373  -0.601 -0.05  1.91    -0.054 C 
ATOM     10  HB3 LYS A   3     -12.209  27.121  -0.068  0.05  1.49     0.048 H 
ATOM     11  HB2 LYS A   3     -13.425  26.048  -0.253  0.05  1.49     0.048 H 
BRANCH   9  12
ATOM     12  CG  LYS A   3     -12.771  26.852  -2.028  0.02  1.91     0.023 C 
ATOM     13  HG2 LYS A   3     -12.673  27.843  -2.058  0.01  1.49     0.013 H 
ATOM     14  HG3 LYS A   3     -12.092  26.424  -2.618  0.01  1.49     0.013 H 
BRANCH  12  15
ATOM     15  CD  LYS A   3     -14.159  26.478  -2.521 -0.04  1.91    -0.039 C 
ATOM     16  HD2 LYS A   3     -14.543  25.791  -1.914  0.06  1.49     0.061 H 
ATOM     17  HD3 LYS A   3     -14.729  27.292  -2.531  0.06  1.49     0.061 H 
BRANCH  15  18
ATOM     18  CE  LYS A   3     -14.108  25.906  -3.929 -0.02  1.91    -0.018 C 
ATOM     19  HE2 LYS A   3     -14.981  26.097  -4.380  0.11  1.10     0.112 H 
ATOM     20  HE3 LYS A   3     -13.372  26.363  -4.430  0.11  1.10     0.112 H 
BRANCH  18  21
ATOM     21  NZ  LYS A   3     -13.869  24.473  -3.883 -0.37  1.82    -0.374 N 
ATOM     22  HZ3 LYS A   3     -14.472  23.997  -4.532  0.34  0.60     0.337 HD
ATOM     23  HZ1 LYS A   3     -14.049  24.119  -2.958  0.34  0.60     0.337 HD
ATOM     24  HZ2 LYS A   3     -12.914  24.270  -4.125  0.34  0.60     0.337 HD
ENDBRANCH  18  21
ENDBRANCH  15  18
ENDBRANCH  12  15
ENDBRANCH   9  12
ENDBRANCH   7   9
BRANCH   7  25
ATOM     25  C   LYS A   3     -12.263  23.916  -0.458  0.85  1.91     0.849 C 
ATOM     26  OXT LYS A   3     -12.415  23.295   0.776 -0.83  1.66    -0.825 OA
ATOM     27  O   LYS A   3     -12.725  23.372  -1.494 -0.83  1.66    -0.825 OA
ENDBRANCH   7  25
ENDBRANCH   5   7
ENDBRANCH   1   3
BRANCH   1  28
ATOM     28  CB  PHE A   2      -9.123  23.609  -4.074 -0.03  1.91    -0.034 C 
ATOM     29  HB3 PHE A   2      -9.851  23.108  -3.650  0.03  1.49     0.029 H 
ATOM     30  HB2 PHE A   2      -8.344  23.049  -4.277  0.03  1.49     0.029 H 
BRANCH  28  31
ATOM     31  CG  PHE A   2      -9.632  24.190  -5.352  0.01  1.91     0.012 A 
ATOM     32  CD2 PHE A   2     -10.775  25.001  -5.366 -0.13  1.91    -0.126 A 
ATOM     33  HD2 PHE A   2     -11.248  25.203  -4.517  0.13  1.46     0.133 H 
ATOM     34  CE2 PHE A   2     -11.249  25.525  -6.571 -0.17  1.91    -0.170 A 
ATOM     35  HE2 PHE A   2     -12.069  26.113  -6.573  0.14  1.46     0.143 H 
ATOM     36  CZ  PHE A   2     -10.586  25.235  -7.767 -0.11  1.91    -0.107 A 
ATOM     37  HZ  PHE A   2     -10.920  25.608  -8.630  0.13  1.46     0.130 H 
ATOM     38  CE1 PHE A   2      -9.450  24.419  -7.758 -0.17  1.91    -0.170 A 
ATOM     39  HE1 PHE A   2      -8.969  24.207  -8.613  0.14  1.46     0.143 H 
ATOM     40  CD1 PHE A   2      -8.976  23.895  -6.551 -0.13  1.91    -0.126 A 
ATOM     41  HD1 PHE A   2      -8.176  23.314  -6.551  0.13  1.46     0.133 H 
ENDBRANCH  28  31
ENDBRANCH   1  28
BRANCH   1  42
ATOM     42  N   PHE A   2      -7.256  24.561  -2.817 -0.42  1.82    -0.416 N 
ATOM     43  H   PHE A   2      -6.825  23.810  -2.255  0.27  0.60     0.272 HD
ATOM     44  C   PHE A   1      -6.277  25.485  -3.304  0.61  1.91     0.612 C 
ATOM     45  O   PHE A   1      -6.625  26.487  -3.983 -0.57  1.66    -0.571 OA
BRANCH  44  46
ATOM     46  CA  PHE A   1      -4.832  25.273  -3.004  0.07  1.91     0.073 C 
ATOM     47  HA  PHE A   1      -4.311  25.961  -3.518  0.10  1.10     0.104 H 
BRANCH  46  48
ATOM     48  N   PHE A   1      -4.579  25.526  -1.595  0.17  1.82     0.174 N 
ATOM     49  H2  PHE A   1      -4.018  24.791  -1.208  0.19  0.60     0.192 HD
ATOM     50  H3  PHE A   1      -4.094  26.397  -1.482  0.19  0.60     0.192 HD
ATOM     51  H   PHE A   1      -5.446  25.572  -1.091  0.19  0.60     0.192 HD
ENDBRANCH  46  48
BRANCH  46  52
ATOM     52  CB  PHE A   1      -4.425  23.849  -3.363  0.03  1.91     0.033 C 
ATOM     53  HB2 PHE A   1      -3.449  23.787  -3.291  0.01  1.49     0.010 H 
ATOM     54  HB3 PHE A   1      -4.891  23.239  -2.754  0.01  1.49     0.010 H 
BRANCH  52  55
ATOM     55  CG  PHE A   1      -4.815  23.507  -4.763  0.00  1.91     0.003 A 
ATOM     56  CD2 PHE A   1      -5.560  22.350  -5.010 -0.14  1.91    -0.139 A 
ATOM     57  HD2 PHE A   1      -5.818  21.757  -4.257  0.14  1.46     0.137 H 
ATOM     58  CE2 PHE A   1      -5.943  22.028  -6.316 -0.16  1.91    -0.160 A 
ATOM     59  HE2 PHE A   1      -6.478  21.189  -6.487  0.14  1.46     0.143 H 
ATOM     60  CZ  PHE A   1      -5.585  22.867  -7.376 -0.12  1.91    -0.121 A 
ATOM     61  HZ  PHE A   1      -5.854  22.639  -8.309  0.13  1.46     0.133 H 
ATOM     62  CE1 PHE A   1      -4.846  24.028  -7.131 -0.16  1.91    -0.160 A 
ATOM     63  HE1 PHE A   1      -4.588  24.635  -7.888  0.14  1.46     0.143 H 
ATOM     64  CD1 PHE A   1      -4.463  24.350  -5.826 -0.14  1.91    -0.139 A 
ATOM     65  HD1 PHE A   1      -3.942  25.171  -5.656  0.14  1.46     0.137 H 
ENDBRANCH  52  55
ENDBRANCH  46  52
ENDBRANCH  44  46
ENDBRANCH   1  42
TORSDOF 15
ENDMDL
