MODEL 1
REMARK VINA RESULT:      -8.1      0.000      0.000
REMARK  19 active torsions:
REMARK  status: ('A' for Active; 'I' for Inactive)
REMARK    1  A    between atoms: N_1  and  CA_2 
REMARK    2  A    between atoms: CA_2  and  C_3 
REMARK    3  A    between atoms: CA_2  and  CB_6 
REMARK       I    between atoms: C_3  and  N_21 
REMARK    4  A    between atoms: CG_5  and  CB_6 
REMARK    5  A    between atoms: N_21  and  CA_22 
REMARK    6  A    between atoms: CA_22  and  CB_25 
REMARK    7  A    between atoms: CA_22  and  C_23 
REMARK       I    between atoms: C_23  and  N_41 
REMARK    8  A    between atoms: CB_25  and  CG_26 
REMARK       I    between atoms: N_41  and  CA_42 
REMARK       I    between atoms: CA_42  and  C_43 
REMARK       I    between atoms: CA_42  and  CB_45 
REMARK       I    between atoms: C_43  and  N_61 
REMARK       I    between atoms: CB_45  and  CG_46 
REMARK    9  A    between atoms: N_61  and  CA_62 
REMARK   10  A    between atoms: CA_62  and  C_63 
REMARK   11  A    between atoms: CA_62  and  CB_65 
REMARK       I    between atoms: C_63  and  N_83 
REMARK   12  A    between atoms: CB_65  and  CG_66 
REMARK   13  A    between atoms: CG_66  and  CD_67 
REMARK   14  A    between atoms: CD_67  and  CE_68 
REMARK   15  A    between atoms: CE_68  and  NZ_69 
REMARK   16  A    between atoms: N_83  and  CA_84 
REMARK   17  A    between atoms: CA_84  and  C_85 
REMARK   18  A    between atoms: CA_84  and  CB_87 
REMARK   19  A    between atoms: CB_87  and  CG_88 
REMARK       I    between atoms: CG_88  and  ND2_95 
ROOT
ATOM      1  C   PHE A   2      -5.935  24.034  -2.594  0.60  1.91     0.597 C 
ATOM      2  O   PHE A   2      -5.463  23.871  -1.470 -0.57  1.66    -0.568 OA
ATOM      3  N   PHE A   3      -6.956  24.904  -2.827 -0.42  1.82    -0.416 N 
ATOM      4  CA  PHE A   3      -7.688  25.434  -1.704 -0.00  1.91    -0.002 C 
ATOM      5  C   PHE A   3      -8.949  24.692  -1.326  0.60  1.91     0.597 C 
ATOM      6  O   PHE A   3      -9.009  23.931  -0.363 -0.57  1.66    -0.568 OA
ATOM      7  CB  PHE A   3      -8.063  26.901  -1.974 -0.03  1.91    -0.034 C 
ATOM      8  CG  PHE A   3      -7.984  27.647  -0.689  0.01  1.91     0.012 A 
ATOM      9  CD1 PHE A   3      -6.741  27.983  -0.202 -0.13  1.91    -0.126 A 
ATOM     10  CD2 PHE A   3      -9.103  28.031   0.010 -0.13  1.91    -0.126 A 
ATOM     11  CE1 PHE A   3      -6.606  28.678   0.974 -0.17  1.91    -0.170 A 
ATOM     12  CE2 PHE A   3      -8.973  28.729   1.190 -0.17  1.91    -0.170 A 
ATOM     13  CZ  PHE A   3      -7.727  29.053   1.674 -0.11  1.91    -0.107 A 
ATOM     14  HZ  PHE A   3      -7.634  29.562   2.533  0.13  1.46     0.130 H 
ATOM     15  HA  PHE A   3      -7.063  25.384  -0.889  0.10  1.39     0.098 H 
ATOM     16  HE1 PHE A   3      -5.685  28.908   1.318  0.14  1.46     0.143 H 
ATOM     17  HE2 PHE A   3      -9.810  29.003   1.704  0.14  1.46     0.143 H 
ATOM     18  H   PHE A   3      -7.125  25.116  -3.807  0.27  0.60     0.272 HD
ATOM     19  HD2 PHE A   3     -10.014  27.805  -0.337  0.13  1.46     0.133 H 
ATOM     20  HD1 PHE A   3      -5.920  27.718  -0.712  0.13  1.46     0.133 H 
ATOM     21  HB3 PHE A   3      -8.978  26.916  -2.291  0.03  1.49     0.029 H 
ATOM     22  HB2 PHE A   3      -7.409  27.263  -2.588  0.03  1.49     0.029 H 
ATOM     23  N   LYS A   4      -9.979  24.828  -2.193 -0.35  1.82    -0.348 N 
ATOM     24  H   LYS A   4      -9.717  25.354  -3.063  0.27  0.60     0.275 HD
ENDROOT
BRANCH  23  25
ATOM     25  CA  LYS A   4     -11.297  24.302  -1.942 -0.24  1.91    -0.240 C 
ATOM     26  HA  LYS A   4     -11.262  23.317  -1.959  0.14  1.39     0.143 H 
BRANCH  25  27
ATOM     27  C   LYS A   4     -12.097  24.797  -3.087  0.73  1.91     0.734 C 
ATOM     28  N   ASN A   5     -11.469  25.651  -3.919 -0.38  1.82    -0.382 N 
ATOM     29  H   ASN A   5     -10.463  25.798  -3.683  0.27  0.60     0.268 HD
ATOM     30  O   LYS A   4     -13.258  24.416  -3.242 -0.59  1.66    -0.589 OA
BRANCH  28  31
ATOM     31  CA  ASN A   5     -12.144  26.281  -5.011 -0.21  1.91    -0.208 C 
ATOM     32  HA  ASN A   5     -13.124  26.179  -4.868  0.14  1.39     0.136 H 
BRANCH  31  33
ATOM     33  C   ASN A   5     -11.798  25.490  -6.260  0.81  1.91     0.805 C 
ATOM     34  OXT ASN A   5     -10.847  25.884  -6.986 -0.81  1.66    -0.815 OA
ATOM     35  O   ASN A   5     -12.487  24.460  -6.483 -0.81  1.66    -0.815 OA
ENDBRANCH  31  33
BRANCH  31  36
ATOM     36  CB  ASN A   5     -11.665  27.730  -5.243 -0.23  1.91    -0.230 C 
ATOM     37  HB3 ASN A   5     -12.434  28.266  -5.555  0.10  1.49     0.102 H 
ATOM     38  HB2 ASN A   5     -10.939  27.713  -5.912  0.10  1.49     0.102 H 
BRANCH  36  39
ATOM     39  CG  ASN A   5     -11.128  28.349  -3.954  0.72  1.91     0.715 C 
ATOM     40  OD1 ASN A   5     -11.723  28.245  -2.883 -0.60  1.66    -0.601 OA
ATOM     41  ND2 ASN A   5      -9.959  29.033  -4.071 -0.91  1.82    -0.908 N 
ATOM     42 1HD2 ASN A   5      -9.525  29.102  -4.961  0.41  0.60     0.415 HD
ATOM     43 2HD2 ASN A   5      -9.562  29.450  -3.267  0.41  0.60     0.415 HD
ENDBRANCH  36  39
ENDBRANCH  31  36
ENDBRANCH  28  31
ENDBRANCH  25  27
BRANCH  25  44
ATOM     44  CB  LYS A   4     -11.961  24.916  -0.696 -0.01  1.91    -0.009 C 
ATOM     45  HB3 LYS A   4     -12.516  25.693  -0.992  0.04  1.49     0.036 H 
ATOM     46  HB2 LYS A   4     -11.237  25.236  -0.086  0.04  1.49     0.036 H 
BRANCH  44  47
ATOM     47  CG  LYS A   4     -12.859  23.959   0.090  0.02  1.91     0.019 C 
ATOM     48  HG3 LYS A   4     -13.524  23.545  -0.541  0.01  1.49     0.010 H 
ATOM     49  HG2 LYS A   4     -13.361  24.483   0.786  0.01  1.49     0.010 H 
BRANCH  47  50
ATOM     50  CD  LYS A   4     -12.085  22.836   0.789 -0.05  1.91    -0.048 C 
ATOM     51  HD3 LYS A   4     -11.584  22.314   0.097  0.06  1.49     0.062 H 
ATOM     52  HD2 LYS A   4     -12.743  22.232   1.244  0.06  1.49     0.062 H 
BRANCH  50  53
ATOM     53  CE  LYS A   4     -11.085  23.335   1.834 -0.01  1.91    -0.014 C 
ATOM     54  HE2 LYS A   4     -10.744  24.226   1.547  0.11  1.10     0.114 H 
ATOM     55  HE3 LYS A   4     -11.553  23.416   2.710  0.11  1.10     0.114 H 
BRANCH  53  56
ATOM     56  NZ  LYS A   4      -9.959  22.385   1.956 -0.39  1.82    -0.385 N 
ATOM     57  HZ3 LYS A   4      -9.236  22.790   2.518  0.34  0.60     0.340 HD
ATOM     58  HZ1 LYS A   4      -9.594  22.177   1.048  0.34  0.60     0.340 HD
ATOM     59  HZ2 LYS A   4     -10.277  21.539   2.387  0.34  0.60     0.340 HD
ENDBRANCH  53  56
ENDBRANCH  50  53
ENDBRANCH  47  50
ENDBRANCH  44  47
ENDBRANCH  25  44
ENDBRANCH  23  25
BRANCH   1  60
ATOM     60  CA  PHE A   2      -5.227  23.443  -3.777 -0.00  1.91    -0.002 C 
ATOM     61  HA  PHE A   2      -5.086  24.184  -4.434  0.10  1.39     0.098 H 
BRANCH  60  62
ATOM     62  CB  PHE A   2      -6.074  22.276  -4.307 -0.03  1.91    -0.034 C 
ATOM     63  HB2 PHE A   2      -5.472  21.542  -4.506  0.03  1.49     0.029 H 
ATOM     64  HB3 PHE A   2      -6.749  22.077  -3.640  0.03  1.49     0.029 H 
BRANCH  62  65
ATOM     65  CG  PHE A   2      -6.745  22.703  -5.561  0.01  1.91     0.012 A 
ATOM     66  CD2 PHE A   2      -6.014  23.082  -6.663 -0.13  1.91    -0.126 A 
ATOM     67  HD2 PHE A   2      -5.010  23.069  -6.621  0.13  1.46     0.133 H 
ATOM     68  CE2 PHE A   2      -6.641  23.477  -7.820 -0.17  1.91    -0.170 A 
ATOM     69  CZ  PHE A   2      -8.011  23.496  -7.883 -0.11  1.91    -0.107 A 
ATOM     70  HE2 PHE A   2      -6.084  23.754  -8.626  0.14  1.46     0.143 H 
ATOM     71  HZ  PHE A   2      -8.479  23.785  -8.720  0.13  1.46     0.130 H 
ATOM     72  CE1 PHE A   2      -8.744  23.114  -6.783 -0.17  1.91    -0.170 A 
ATOM     73  HE1 PHE A   2      -9.759  23.122  -6.821  0.14  1.46     0.143 H 
ATOM     74  CD1 PHE A   2      -8.116  22.719  -5.630 -0.13  1.91    -0.126 A 
ATOM     75  HD1 PHE A   2      -8.661  22.445  -4.841  0.13  1.46     0.133 H 
ENDBRANCH  62  65
ENDBRANCH  60  62
BRANCH  60  76
ATOM     76  N   PHE A   2      -3.938  23.000  -3.345 -0.42  1.82    -0.416 N 
ATOM     77  C   HIS A   1      -2.906  23.865  -3.363  0.72  1.91     0.721 C 
ATOM     78  O   HIS A   1      -3.042  25.046  -3.679 -0.60  1.66    -0.601 OA
ATOM     79  H   PHE A   2      -3.708  22.060  -3.010  0.27  0.60     0.272 HD
BRANCH  77  80
ATOM     80  CA  HIS A   1      -1.575  23.335  -2.952  0.06  1.91     0.058 C 
ATOM     81  HA  HIS A   1      -1.284  22.622  -3.600  0.10  1.10     0.105 H 
BRANCH  80  82
ATOM     82  N   HIS A   1      -0.561  24.409  -2.988  0.26  1.82     0.256 N 
ATOM     83  H   HIS A   1       0.242  24.122  -2.466  0.17  0.60     0.170 HD
ATOM     84  H3  HIS A   1      -0.945  25.239  -2.585  0.17  0.60     0.170 HD
ATOM     85  H2  HIS A   1      -0.300  24.584  -3.938  0.17  0.60     0.170 HD
ENDBRANCH  80  82
BRANCH  80  86
ATOM     86  CB  HIS A   1      -1.693  22.783  -1.522  0.05  1.91     0.048 C 
ATOM     87  HB3 HIS A   1      -0.819  22.368  -1.262  0.05  1.49     0.053 H 
ATOM     88  HB2 HIS A   1      -2.408  22.082  -1.503  0.05  1.49     0.053 H 
BRANCH  86  89
ATOM     89  CG  HIS A   1      -2.035  23.838  -0.513 -0.02  1.91    -0.024 A 
ATOM     90  ND1 HIS A   1      -3.175  23.829   0.259 -0.15  1.82    -0.151 N 
ATOM     91  CE1 HIS A   1      -3.125  24.935   1.044 -0.00  1.91    -0.001 A 
ATOM     92  HD1 HIS A   1      -3.890  23.164   0.257  0.38  0.60     0.382 HD
ATOM     93  HE1 HIS A   1      -3.850  25.170   1.713  0.26  1.36     0.265 H 
ATOM     94  NE2 HIS A   1      -2.036  25.652   0.829 -0.17  1.82    -0.174 N 
ATOM     95  HE2 HIS A   1      -1.768  26.481   1.261  0.39  0.60     0.392 HD
ATOM     96  CD2 HIS A   1      -1.351  24.959  -0.153 -0.14  1.91    -0.143 A 
ATOM     97  HD2 HIS A   1      -0.462  25.248  -0.548  0.25  1.41     0.249 H 
ENDBRANCH  86  89
ENDBRANCH  80  86
ENDBRANCH  77  80
ENDBRANCH  60  76
ENDBRANCH   1  60
TORSDOF 23
ENDMDL
