REMARK  19 active torsions:
REMARK  status: ('A' for Active; 'I' for Inactive)
REMARK    1  A    between atoms: N_1  and  CA_2 
REMARK    2  A    between atoms: CA_2  and  C_3 
REMARK    3  A    between atoms: CA_2  and  CB_6 
REMARK       I    between atoms: C_3  and  N_21 
REMARK    4  A    between atoms: CG_5  and  CB_6 
REMARK    5  A    between atoms: N_21  and  CA_22 
REMARK    6  A    between atoms: CA_22  and  CB_25 
REMARK    7  A    between atoms: CA_22  and  C_23 
REMARK       I    between atoms: C_23  and  N_41 
REMARK    8  A    between atoms: CB_25  and  CG_26 
REMARK       I    between atoms: N_41  and  CA_42 
REMARK       I    between atoms: CA_42  and  C_43 
REMARK       I    between atoms: CA_42  and  CB_45 
REMARK       I    between atoms: C_43  and  N_61 
REMARK       I    between atoms: CB_45  and  CG_46 
REMARK    9  A    between atoms: N_61  and  CA_62 
REMARK   10  A    between atoms: CA_62  and  CB_65 
REMARK   11  A    between atoms: CA_62  and  C_63 
REMARK       I    between atoms: C_63  and  N_83 
REMARK   12  A    between atoms: CB_65  and  CG_66 
REMARK   13  A    between atoms: CG_66  and  CD_67 
REMARK   14  A    between atoms: CD_67  and  CE_68 
REMARK   15  A    between atoms: CE_68  and  NZ_69 
REMARK   16  A    between atoms: N_83  and  CA_84 
REMARK   17  A    between atoms: CA_84  and  C_85 
REMARK   18  A    between atoms: CA_84  and  CB_87 
REMARK   19  A    between atoms: CB_87  and  CG_88 
REMARK       I    between atoms: CG_88  and  ND2_95 
ROOT
ATOM      1  C   PHE A   2      -6.020  23.190  -5.646  0.60  1.91     0.597 C 
ATOM      2  O   PHE A   2      -6.077  22.198  -4.922 -0.57  1.66    -0.568 OA
ATOM      3  N   PHE A   3      -7.132  23.902  -5.969 -0.42  1.82    -0.416 N 
ATOM      4  CA  PHE A   3      -8.419  23.316  -5.690 -0.00  1.91    -0.002 C 
ATOM      5  C   PHE A   3      -9.064  22.583  -6.840  0.60  1.91     0.597 C 
ATOM      6  O   PHE A   3      -9.117  21.356  -6.903 -0.57  1.66    -0.568 OA
ATOM      7  CB  PHE A   3      -9.395  24.397  -5.197 -0.03  1.91    -0.034 C 
ATOM      8  CG  PHE A   3     -10.173  23.810  -4.072  0.01  1.91     0.012 A 
ATOM      9  CD1 PHE A   3      -9.595  23.762  -2.823 -0.13  1.91    -0.126 A 
ATOM     10  CD2 PHE A   3     -11.448  23.326  -4.237 -0.13  1.91    -0.126 A 
ATOM     11  CE1 PHE A   3     -10.268  23.235  -1.748 -0.17  1.91    -0.170 A 
ATOM     12  CE2 PHE A   3     -12.127  22.796  -3.163 -0.17  1.91    -0.170 A 
ATOM     13  CZ  PHE A   3     -11.541  22.750  -1.920 -0.11  1.91    -0.107 A 
ATOM     14  HZ  PHE A   3     -12.040  22.364  -1.139  0.13  1.46     0.130 H 
ATOM     15  HA  PHE A   3      -8.276  22.625  -4.944  0.10  1.39     0.098 H 
ATOM     16  HE1 PHE A   3      -9.824  23.206  -0.843  0.14  1.46     0.143 H 
ATOM     17  HE2 PHE A   3     -13.072  22.435  -3.297  0.14  1.46     0.143 H 
ATOM     18  H   PHE A   3      -6.962  24.807  -6.389  0.27  0.60     0.272 HD
ATOM     19  HD2 PHE A   3     -11.884  23.359  -5.136  0.13  1.46     0.133 H 
ATOM     20  HD1 PHE A   3      -8.666  24.119  -2.693  0.13  1.46     0.133 H 
ATOM     21  HB3 PHE A   3      -9.997  24.601  -5.921  0.03  1.49     0.029 H 
ATOM     22  HB2 PHE A   3      -8.872  25.135  -4.865  0.03  1.49     0.029 H 
ATOM     23  N   LYS A   4      -9.479  23.369  -7.857 -0.35  1.82    -0.348 N 
ATOM     24  H   LYS A   4      -9.198  24.374  -7.740  0.27  0.60     0.275 HD
ENDROOT
BRANCH  23  25
ATOM     25  CA  LYS A   4     -10.228  22.875  -8.981 -0.24  1.91    -0.240 C 
ATOM     26  HA  LYS A   4     -10.160  21.897  -9.014  0.14  1.39     0.143 H 
BRANCH  25  27
ATOM     27  CB  LYS A   4     -11.630  23.494  -9.063 -0.01  1.91    -0.009 C 
ATOM     28  HB3 LYS A   4     -12.148  23.000  -9.757  0.04  1.49     0.036 H 
ATOM     29  HB2 LYS A   4     -11.533  24.450  -9.326  0.04  1.49     0.036 H 
BRANCH  27  30
ATOM     30  CG  LYS A   4     -12.410  23.435  -7.751  0.02  1.91     0.019 C 
ATOM     31  HG2 LYS A   4     -12.790  22.514  -7.640  0.01  1.49     0.010 H 
ATOM     32  HG3 LYS A   4     -11.785  23.626  -6.991  0.01  1.49     0.010 H 
BRANCH  30  33
ATOM     33  CD  LYS A   4     -13.556  24.446  -7.710 -0.05  1.91    -0.048 C 
ATOM     34  HD2 LYS A   4     -13.258  25.286  -8.168  0.06  1.49     0.062 H 
ATOM     35  HD3 LYS A   4     -14.340  24.063  -8.203  0.06  1.49     0.062 H 
BRANCH  33  36
ATOM     36  CE  LYS A   4     -14.007  24.804  -6.294 -0.01  1.91    -0.014 C 
ATOM     37  HE3 LYS A   4     -13.201  24.967  -5.734  0.11  1.10     0.114 H 
ATOM     38  HE2 LYS A   4     -14.534  24.045  -5.926  0.11  1.10     0.114 H 
BRANCH  36  39
ATOM     39  NZ  LYS A   4     -14.844  26.022  -6.330 -0.39  1.82    -0.385 N 
ATOM     40  HZ2 LYS A   4     -15.564  25.915  -7.017  0.34  0.60     0.340 HD
ATOM     41  HZ1 LYS A   4     -15.262  26.170  -5.432  0.34  0.60     0.340 HD
ATOM     42  HZ3 LYS A   4     -14.277  26.813  -6.565  0.34  0.60     0.340 HD
ENDBRANCH  36  39
ENDBRANCH  33  36
ENDBRANCH  30  33
ENDBRANCH  27  30
ENDBRANCH  25  27
BRANCH  25  43
ATOM     43  C   LYS A   4      -9.498  23.468 -10.131  0.73  1.91     0.734 C 
ATOM     44  O   LYS A   4     -10.107  24.065 -11.019 -0.59  1.66    -0.589 OA
ATOM     45  N   ASN A   5      -8.161  23.306 -10.130 -0.38  1.82    -0.382 N 
ATOM     46  H   ASN A   5      -7.806  22.715  -9.358  0.27  0.60     0.268 HD
BRANCH  45  47
ATOM     47  CA  ASN A   5      -7.350  23.921 -11.134 -0.21  1.91    -0.208 C 
ATOM     48  HA  ASN A   5      -7.933  24.526 -11.674  0.14  1.39     0.136 H 
BRANCH  47  49
ATOM     49  C   ASN A   5      -6.866  22.830 -12.065  0.81  1.91     0.805 C 
ATOM     50  O   ASN A   5      -7.656  21.902 -12.386 -0.81  1.66    -0.815 OA
ATOM     51  OXT ASN A   5      -5.679  22.928 -12.474 -0.81  1.66    -0.815 OA
ENDBRANCH  47  49
BRANCH  47  52
ATOM     52  CB  ASN A   5      -6.090  24.595 -10.557 -0.23  1.91    -0.230 C 
ATOM     53  HB2 ASN A   5      -6.338  25.064  -9.733  0.10  1.49     0.102 H 
ATOM     54  HB3 ASN A   5      -5.408  23.906 -10.411  0.10  1.49     0.102 H 
BRANCH  52  55
ATOM     55  CG  ASN A   5      -5.557  25.611 -11.561  0.72  1.91     0.715 C 
ATOM     56  OD1 ASN A   5      -5.690  25.447 -12.773 -0.60  1.66    -0.601 OA
ATOM     57  ND2 ASN A   5      -4.939  26.702 -11.036 -0.91  1.82    -0.908 N 
ATOM     58 2HD2 ASN A   5      -4.580  27.393 -11.642  0.41  0.60     0.415 HD
ATOM     59 1HD2 ASN A   5      -4.859  26.783 -10.048  0.41  0.60     0.415 HD
ENDBRANCH  52  55
ENDBRANCH  47  52
ENDBRANCH  45  47
ENDBRANCH  25  43
ENDBRANCH  23  25
BRANCH   1  60
ATOM     60  CA  PHE A   2      -4.680  23.759  -6.003 -0.00  1.91    -0.002 C 
ATOM     61  HA  PHE A   2      -4.841  24.492  -6.669  0.10  1.39     0.098 H 
BRANCH  60  62
ATOM     62  CB  PHE A   2      -3.798  22.618  -6.539 -0.03  1.91    -0.034 C 
ATOM     63  HB2 PHE A   2      -2.960  23.009  -6.833  0.03  1.49     0.029 H 
ATOM     64  HB3 PHE A   2      -3.710  21.959  -5.832  0.03  1.49     0.029 H 
BRANCH  62  65
ATOM     65  CG  PHE A   2      -4.473  21.990  -7.703  0.01  1.91     0.012 A 
ATOM     66  CD2 PHE A   2      -5.271  20.884  -7.529 -0.13  1.91    -0.126 A 
ATOM     67  CE2 PHE A   2      -5.897  20.296  -8.602 -0.17  1.91    -0.170 A 
ATOM     68  HD2 PHE A   2      -5.397  20.502  -6.609  0.13  1.46     0.133 H 
ATOM     69  CZ  PHE A   2      -5.729  20.820  -9.859 -0.11  1.91    -0.107 A 
ATOM     70  HE2 PHE A   2      -6.482  19.477  -8.458  0.14  1.46     0.143 H 
ATOM     71  HZ  PHE A   2      -6.181  20.399 -10.649  0.13  1.46     0.130 H 
ATOM     72  CE1 PHE A   2      -4.936  21.927 -10.034 -0.17  1.91    -0.170 A 
ATOM     73  HE1 PHE A   2      -4.809  22.321 -10.962  0.14  1.46     0.143 H 
ATOM     74  CD1 PHE A   2      -4.311  22.512  -8.963 -0.13  1.91    -0.126 A 
ATOM     75  HD1 PHE A   2      -3.739  23.316  -9.103  0.13  1.46     0.133 H 
ENDBRANCH  62  65
ENDBRANCH  60  62
BRANCH  60  76
ATOM     76  N   PHE A   2      -4.111  24.356  -4.836 -0.42  1.82    -0.416 N 
ATOM     77  H   PHE A   2      -3.706  23.848  -4.040  0.27  0.60     0.272 HD
ATOM     78  C   HIS A   1      -4.080  25.696  -4.724  0.72  1.91     0.721 C 
ATOM     79  O   HIS A   1      -4.556  26.437  -5.582 -0.60  1.66    -0.601 OA
BRANCH  78  80
ATOM     80  CA  HIS A   1      -3.441  26.259  -3.500  0.06  1.91     0.058 C 
ATOM     81  HA  HIS A   1      -2.773  26.960  -3.763  0.10  1.10     0.105 H 
BRANCH  80  82
ATOM     82  CB  HIS A   1      -2.755  25.121  -2.722  0.05  1.91     0.048 C 
ATOM     83  HB3 HIS A   1      -3.405  24.364  -2.616  0.05  1.49     0.053 H 
ATOM     84  HB2 HIS A   1      -2.496  25.459  -1.814  0.05  1.49     0.053 H 
BRANCH  82  85
ATOM     85  CG  HIS A   1      -1.522  24.595  -3.401 -0.02  1.91    -0.024 A 
ATOM     86  ND1 HIS A   1      -1.520  23.610  -4.365 -0.15  1.82    -0.151 N 
ATOM     87  HD1 HIS A   1      -2.291  23.134  -4.730  0.38  0.60     0.382 HD
ATOM     88  CE1 HIS A   1      -0.227  23.416  -4.725 -0.00  1.91    -0.001 A 
ATOM     89  HE1 HIS A   1       0.055  22.738  -5.425  0.26  1.36     0.265 H 
ATOM     90  NE2 HIS A   1       0.600  24.203  -4.063 -0.17  1.82    -0.174 N 
ATOM     91  HE2 HIS A   1       1.568  24.257  -4.139  0.39  0.60     0.392 HD
ATOM     92  CD2 HIS A   1      -0.218  24.945  -3.229 -0.14  1.91    -0.143 A 
ATOM     93  HD2 HIS A   1       0.112  25.652  -2.579  0.25  1.41     0.249 H 
ENDBRANCH  82  85
ENDBRANCH  80  82
BRANCH  80  94
ATOM     94  N   HIS A   1      -4.467  26.914  -2.661  0.26  1.82     0.256 N 
ATOM     95  H   HIS A   1      -4.029  27.602  -2.083  0.17  0.60     0.170 HD
ATOM     96  H3  HIS A   1      -4.913  26.226  -2.089  0.17  0.60     0.170 HD
ATOM     97  H2  HIS A   1      -5.145  27.352  -3.251  0.17  0.60     0.170 HD
ENDBRANCH  80  94
ENDBRANCH  78  80
ENDBRANCH  60  76
ENDBRANCH   1  60
TORSDOF 23
