MODEL 1
REMARK VINA RESULT:      -9.6      0.000      0.000
REMARK  16 active torsions:
REMARK  status: ('A' for Active; 'I' for Inactive)
REMARK    1  A    between atoms: N_1  and  CA_2 
REMARK    2  A    between atoms: CA_2  and  CB_5 
REMARK    3  A    between atoms: CA_2  and  C_3 
REMARK       I    between atoms: C_3  and  N_18 
REMARK    4  A    between atoms: CB_5  and  CG_6 
REMARK    5  A    between atoms: CG_6  and  CD_7 
REMARK    6  A    between atoms: N_18  and  CA_19 
REMARK    7  A    between atoms: CA_19  and  CB_22 
REMARK    8  A    between atoms: CA_19  and  C_20 
REMARK       I    between atoms: C_20  and  N_32 
REMARK    9  A    between atoms: CB_22  and  CG_23 
REMARK       I    between atoms: CG_23  and  ND2_29 
REMARK       I    between atoms: CA_33  and  C_34 
REMARK       I    between atoms: C_34  and  N_46 
REMARK       I    between atoms: N_46  and  CA_47 
REMARK       I    between atoms: CA_47  and  CB_50 
REMARK       I    between atoms: CA_47  and  C_48 
REMARK       I    between atoms: C_48  and  N_62 
REMARK       I    between atoms: CB_50  and  CG1_51 
REMARK       I    between atoms: CB_50  and  CG2_52 
REMARK       I    between atoms: N_62  and  CA_63 
REMARK       I    between atoms: CA_63  and  C_64 
REMARK       I    between atoms: CA_63  and  CB_66 
REMARK       I    between atoms: C_64  and  N_78 
REMARK       I    between atoms: CB_66  and  CG2_68 
REMARK       I    between atoms: CB_66  and  CG1_67 
REMARK       I    between atoms: N_78  and  CA_79 
REMARK       I    between atoms: CA_79  and  CB_83 
REMARK       I    between atoms: CA_79  and  C_80 
REMARK       I    between atoms: C_80  and  N_96 
REMARK       I    between atoms: CG_82  and  CB_83 
REMARK       I    between atoms: N_96  and  CA_97 
REMARK       I    between atoms: CA_97  and  CB_100 
REMARK       I    between atoms: CA_97  and  C_98 
REMARK       I    between atoms: C_98  and  N_116 
REMARK       I    between atoms: CB_100  and  CG_101 
REMARK       I    between atoms: N_116  and  CA_117 
REMARK       I    between atoms: CA_117  and  CB_120 
REMARK       I    between atoms: CA_117  and  C_118 
REMARK       I    between atoms: C_118  and  N_136 
REMARK       I    between atoms: CB_120  and  CG_121 
REMARK       I    between atoms: N_136  and  CA_137 
REMARK       I    between atoms: CA_137  and  C_138 
REMARK       I    between atoms: CA_137  and  CB_140 
REMARK       I    between atoms: C_138  and  N_158 
REMARK       I    between atoms: CB_140  and  CG_141 
REMARK       I    between atoms: CG_141  and  CD_142 
REMARK       I    between atoms: CD_142  and  CE_143 
REMARK       I    between atoms: CE_143  and  NZ_144 
REMARK       I    between atoms: N_158  and  CA_159 
REMARK       I    between atoms: CA_159  and  CB_162 
REMARK       I    between atoms: CA_159  and  C_160 
REMARK       I    between atoms: C_160  and  N_172 
REMARK       I    between atoms: CB_162  and  CG_163 
REMARK       I    between atoms: CG_163  and  ND2_169 
REMARK       I    between atoms: N_172  and  CA_173 
REMARK       I    between atoms: CA_173  and  C_174 
REMARK       I    between atoms: CA_173  and  CB_176 
REMARK       I    between atoms: C_174  and  N_191 
REMARK       I    between atoms: CB_176  and  CG2_178 
REMARK       I    between atoms: CB_176  and  CG1_177 
REMARK       I    between atoms: CG1_177  and  CD1_179 
REMARK       I    between atoms: N_191  and  CA_192 
REMARK       I    between atoms: CA_192  and  C_193 
REMARK       I    between atoms: CA_192  and  CB_195 
REMARK       I    between atoms: C_193  and  N_207 
REMARK       I    between atoms: CB_195  and  CG2_197 
REMARK       I    between atoms: CB_195  and  CG1_196 
REMARK       I    between atoms: N_207  and  CA_208 
REMARK       I    between atoms: CA_208  and  C_209 
REMARK       I    between atoms: CA_208  and  CB_211 
REMARK       I    between atoms: C_209  and  N_221 
REMARK       I    between atoms: CB_211  and  OG1_212 
REMARK       I    between atoms: CB_211  and  CG2_213 
REMARK   10  A    between atoms: CA_222  and  C_223 
REMARK       I    between atoms: C_223  and  N_235 
REMARK   11  A    between atoms: N_235  and  CA_236 
REMARK   12  A    between atoms: CA_236  and  CB_239 
REMARK   13  A    between atoms: CA_236  and  C_237 
REMARK   14  A    between atoms: CB_239  and  CG_240 
REMARK   15  A    between atoms: CG_240  and  CD_241 
REMARK   16  A    between atoms: CD_241  and  NE_242 
REMARK       I    between atoms: NE_242  and  CZ_243 
REMARK       I    between atoms: CZ_243  and  NH1_244 
ROOT
ATOM      1  C   ASN A   2      10.202  23.778  -3.172  0.60  1.91     0.597 C 
ATOM      2  O   ASN A   2       9.945  22.602  -2.921 -0.57  1.66    -0.568 OA
ATOM      3  N   PRO A   3       9.424  24.780  -2.890 -0.25  1.82    -0.255 N 
ATOM      4  CA  PRO A   3       8.150  24.641  -2.246 -0.03  1.91    -0.027 C 
ATOM      5  C   PRO A   3       7.123  24.087  -3.168  0.59  1.91     0.590 C 
ATOM      6  O   PRO A   3       7.250  24.241  -4.381 -0.57  1.66    -0.575 OA
ATOM      7  CD  PRO A   3       9.935  26.136  -2.827  0.02  1.91     0.019 C 
ATOM      8  CB  PRO A   3       7.791  26.035  -1.727 -0.01  1.91    -0.007 C 
ATOM      9  CG  PRO A   3       8.695  26.990  -2.526  0.02  1.91     0.019 C 
ATOM     10  HG2 PRO A   3       8.244  27.263  -3.361  0.02  1.49     0.021 H 
ATOM     11  HA  PRO A   3       8.231  24.075  -1.403  0.06  1.39     0.064 H 
ATOM     12  HD3 PRO A   3      10.615  26.239  -2.096  0.04  1.39     0.039 H 
ATOM     13  HD2 PRO A   3      10.346  26.416  -3.697  0.04  1.39     0.039 H 
ATOM     14  HG3 PRO A   3       8.933  27.773  -1.971  0.02  1.49     0.021 H 
ATOM     15  HB3 PRO A   3       7.985  26.121  -0.752  0.03  1.49     0.025 H 
ATOM     16  HB2 PRO A   3       6.832  26.252  -1.902  0.03  1.49     0.025 H 
ATOM     17  N   VAL A   4       6.090  23.441  -2.606 -0.42  1.82    -0.416 N 
ATOM     18  CA  VAL A   4       5.067  22.893  -3.435 -0.09  1.91    -0.087 C 
ATOM     19  C   VAL A   4       3.808  23.643  -3.167  0.60  1.91     0.597 C 
ATOM     20  O   VAL A   4       3.555  24.097  -2.051 -0.57  1.66    -0.568 OA
ATOM     21  CB  VAL A   4       4.810  21.437  -3.198  0.30  1.91     0.298 C 
ATOM     22  CG1 VAL A   4       6.067  20.645  -3.604 -0.32  1.91    -0.319 C 
ATOM     23  CG2 VAL A   4       4.393  21.252  -1.731 -0.32  1.91    -0.319 C 
ATOM     24  HA  VAL A   4       5.321  23.035  -4.395  0.10  1.39     0.097 H 
ATOM     25 1HG1 VAL A   4       6.805  21.286  -3.802  0.08  1.49     0.079 H 
ATOM     26 1HG2 VAL A   4       4.615  20.322  -1.447  0.08  1.49     0.079 H 
ATOM     27  HB  VAL A   4       4.089  21.132  -3.804 -0.03  1.49    -0.030 H 
ATOM     28 2HG1 VAL A   4       6.331  20.046  -2.852  0.08  1.49     0.079 H 
ATOM     29 3HG1 VAL A   4       5.862  20.103  -4.414  0.08  1.49     0.079 H 
ATOM     30  H   VAL A   4       6.120  23.389  -1.580  0.27  0.60     0.272 HD
ATOM     31 3HG2 VAL A   4       4.890  21.909  -1.169  0.08  1.49     0.079 H 
ATOM     32 2HG2 VAL A   4       3.410  21.409  -1.652  0.08  1.49     0.079 H 
ATOM     33  N   VAL A   5       3.001  23.811  -4.229 -0.42  1.82    -0.416 N 
ATOM     34  CA  VAL A   5       1.768  24.532  -4.152 -0.09  1.91    -0.087 C 
ATOM     35  C   VAL A   5       0.707  23.578  -3.720  0.60  1.91     0.597 C 
ATOM     36  O   VAL A   5       0.774  22.384  -4.006 -0.57  1.66    -0.568 OA
ATOM     37  CB  VAL A   5       1.309  25.051  -5.477  0.30  1.91     0.298 C 
ATOM     38  CG1 VAL A   5       2.416  25.922  -6.079 -0.32  1.91    -0.319 C 
ATOM     39  CG2 VAL A   5       0.917  23.853  -6.352 -0.32  1.91    -0.319 C 
ATOM     40  HA  VAL A   5       1.857  25.244  -3.453  0.10  1.39     0.097 H 
ATOM     41 1HG1 VAL A   5       3.062  25.341  -6.571  0.08  1.49     0.079 H 
ATOM     42 1HG2 VAL A   5       0.174  24.126  -6.960  0.08  1.49     0.079 H 
ATOM     43  HB  VAL A   5       0.530  25.651  -5.339 -0.03  1.49    -0.030 H 
ATOM     44 2HG1 VAL A   5       2.009  26.582  -6.710  0.08  1.49     0.079 H 
ATOM     45 3HG1 VAL A   5       2.890  26.405  -5.346  0.08  1.49     0.079 H 
ATOM     46  H   VAL A   5       3.367  23.365  -5.103  0.27  0.60     0.272 HD
ATOM     47 3HG2 VAL A   5       1.709  23.570  -6.888  0.08  1.49     0.079 H 
ATOM     48 2HG2 VAL A   5       0.618  23.105  -5.763  0.08  1.49     0.079 H 
ATOM     49  N   HIS A   6      -0.304  24.089  -3.000 -0.35  1.82    -0.348 N 
ATOM     50  CA  HIS A   6      -1.384  23.237  -2.613 -0.14  1.91    -0.135 C 
ATOM     51  C   HIS A   6      -2.627  23.852  -3.152  0.73  1.91     0.734 C 
ATOM     52  O   HIS A   6      -2.668  25.047  -3.441 -0.59  1.66    -0.589 OA
ATOM     53  CG  HIS A   6      -1.707  24.272  -0.297 -0.00  1.91    -0.001 A 
ATOM     54  CB  HIS A   6      -1.522  23.020  -1.094 -0.04  1.91    -0.041 C 
ATOM     55  HB2 HIS A   6      -2.313  22.415  -0.926  0.08  1.49     0.081 H 
ATOM     56  HB3 HIS A   6      -0.694  22.549  -0.760  0.08  1.49     0.081 H 
ATOM     57  H   HIS A   6      -0.219  25.085  -2.778  0.27  0.60     0.275 HD
ATOM     58  HA  HIS A   6      -1.258  22.341  -3.034  0.12  1.39     0.121 H 
ATOM     59  CD2 HIS A   6      -0.780  25.114   0.234 -0.11  1.91    -0.114 A 
ATOM     60  HE2 HIS A   6      -0.966  26.883   1.386  0.39  0.60     0.391 HD
ATOM     61  HD1 HIS A   6      -3.815  24.433  -0.161  0.39  0.60     0.387 HD
ATOM     62  HD2 HIS A   6       0.226  25.002   0.143  0.23  1.41     0.232 H 
ATOM     63  CE1 HIS A   6      -2.687  25.910   0.783 -0.02  1.91    -0.017 A 
ATOM     64  ND1 HIS A   6      -2.933  24.789   0.057 -0.15  1.82    -0.151 N 
ATOM     65  NE2 HIS A   6      -1.395  26.148   0.915 -0.17  1.82    -0.172 N 
ATOM     66  HE1 HIS A   6      -3.425  26.487   1.171  0.27  1.36     0.268 H 
ATOM     67  N   PHE A   7      -3.675  23.028  -3.330 -0.42  1.82    -0.416 N 
ATOM     68  CA  PHE A   7      -4.881  23.530  -3.910 -0.00  1.91    -0.002 C 
ATOM     69  C   PHE A   7      -5.753  23.913  -2.755  0.60  1.91     0.597 C 
ATOM     70  O   PHE A   7      -6.022  23.101  -1.870 -0.57  1.66    -0.568 OA
ATOM     71  CB  PHE A   7      -5.575  22.452  -4.753 -0.03  1.91    -0.034 C 
ATOM     72  CG  PHE A   7      -6.475  23.116  -5.725  0.01  1.91     0.012 A 
ATOM     73  CD1 PHE A   7      -5.957  23.640  -6.889 -0.13  1.91    -0.126 A 
ATOM     74  CD2 PHE A   7      -7.824  23.205  -5.490 -0.13  1.91    -0.126 A 
ATOM     75  CE1 PHE A   7      -6.771  24.255  -7.811 -0.17  1.91    -0.170 A 
ATOM     76  CE2 PHE A   7      -8.637  23.819  -6.408 -0.17  1.91    -0.170 A 
ATOM     77  CZ  PHE A   7      -8.119  24.344  -7.568 -0.11  1.91    -0.107 A 
ATOM     78  HZ  PHE A   7      -8.720  24.790  -8.235  0.13  1.46     0.130 H 
ATOM     79  HA  PHE A   7      -4.655  24.366  -4.395  0.10  1.39     0.098 H 
ATOM     80  HE1 PHE A   7      -6.372  24.635  -8.656  0.14  1.46     0.143 H 
ATOM     81  HE2 PHE A   7      -9.642  23.886  -6.224  0.14  1.46     0.143 H 
ATOM     82  H   PHE A   7      -3.519  22.059  -3.021  0.27  0.60     0.272 HD
ATOM     83  HD2 PHE A   7      -8.213  22.824  -4.653  0.13  1.46     0.133 H 
ATOM     84  HD1 PHE A   7      -4.974  23.573  -7.070  0.13  1.46     0.133 H 
ATOM     85  HB3 PHE A   7      -6.106  21.906  -4.153  0.03  1.49     0.029 H 
ATOM     86  HB2 PHE A   7      -4.887  21.970  -5.237  0.03  1.49     0.029 H 
ATOM     87  N   PHE A   8      -6.191  25.187  -2.719 -0.42  1.82    -0.416 N 
ATOM     88  CA  PHE A   8      -6.954  25.668  -1.600 -0.00  1.91    -0.002 C 
ATOM     89  C   PHE A   8      -8.212  24.863  -1.529  0.60  1.91     0.597 C 
ATOM     90  O   PHE A   8      -8.474  24.191  -0.533 -0.57  1.66    -0.568 OA
ATOM     91  CB  PHE A   8      -7.360  27.142  -1.782 -0.03  1.91    -0.034 C 
ATOM     92  CG  PHE A   8      -7.830  27.713  -0.484  0.01  1.91     0.012 A 
ATOM     93  CD1 PHE A   8      -9.090  27.445   0.002 -0.13  1.91    -0.126 A 
ATOM     94  CD2 PHE A   8      -7.004  28.543   0.242 -0.13  1.91    -0.126 A 
ATOM     95  CE1 PHE A   8      -9.512  27.982   1.196 -0.17  1.91    -0.170 A 
ATOM     96  CE2 PHE A   8      -7.420  29.083   1.436 -0.17  1.91    -0.170 A 
ATOM     97  CZ  PHE A   8      -8.678  28.804   1.915 -0.11  1.91    -0.107 A 
ATOM     98  HZ  PHE A   8      -8.988  29.197   2.783  0.13  1.46     0.130 H 
ATOM     99  HA  PHE A   8      -6.427  25.469  -0.775  0.10  1.39     0.098 H 
ATOM    100  HE1 PHE A   8     -10.440  27.767   1.539  0.14  1.46     0.143 H 
ATOM    101  HE2 PHE A   8      -6.793  29.689   1.960  0.14  1.46     0.143 H 
ATOM    102  H   PHE A   8      -5.930  25.750  -3.545  0.27  0.60     0.272 HD
ATOM    103  HD2 PHE A   8      -6.085  28.755  -0.106  0.13  1.46     0.133 H 
ATOM    104  HD1 PHE A   8      -9.708  26.854  -0.516  0.13  1.46     0.133 H 
ATOM    105  HB3 PHE A   8      -8.096  27.168  -2.420  0.03  1.49     0.029 H 
ATOM    106  HB2 PHE A   8      -6.569  27.633  -2.071  0.03  1.49     0.029 H 
ATOM    107  N   LYS A   9      -8.991  24.906  -2.628 -0.35  1.82    -0.348 N 
ATOM    108  CA  LYS A   9     -10.218  24.189  -2.836 -0.24  1.91    -0.240 C 
ATOM    109  C   LYS A   9     -11.074  25.056  -3.692  0.73  1.91     0.734 C 
ATOM    110  O   LYS A   9     -12.297  25.094  -3.568 -0.59  1.66    -0.589 OA
ATOM    111  CB  LYS A   9     -10.974  23.787  -1.554 -0.01  1.91    -0.009 C 
ATOM    112  CG  LYS A   9     -11.275  24.928  -0.586  0.02  1.91     0.019 C 
ATOM    113  CD  LYS A   9     -12.029  24.442   0.652 -0.05  1.91    -0.048 C 
ATOM    114  CE  LYS A   9     -11.132  23.693   1.645 -0.01  1.91    -0.014 C 
ATOM    115  NZ  LYS A   9     -10.572  22.470   1.023 -0.39  1.82    -0.385 N 
ATOM    116  HA  LYS A   9     -10.024  23.337  -3.315  0.14  1.39     0.143 H 
ATOM    117  HE2 LYS A   9     -10.389  24.300   1.921  0.11  1.10     0.114 H 
ATOM    118  HE3 LYS A   9     -11.679  23.445   2.442  0.11  1.10     0.114 H 
ATOM    119  HG2 LYS A   9     -10.413  25.343  -0.294  0.01  1.49     0.010 H 
ATOM    120  HG3 LYS A   9     -11.833  25.614  -1.054  0.01  1.49     0.010 H 
ATOM    121  HZ1 LYS A   9     -10.178  21.884   1.732  0.34  0.60     0.340 HD
ATOM    122  HZ3 LYS A   9     -11.299  21.973   0.547  0.34  0.60     0.340 HD
ATOM    123  HZ2 LYS A   9      -9.860  22.724   0.368  0.34  0.60     0.340 HD
ATOM    124  HD3 LYS A   9     -12.759  23.825   0.363  0.06  1.49     0.062 H 
ATOM    125  HD2 LYS A   9     -12.422  25.233   1.119  0.06  1.49     0.062 H 
ATOM    126  H   LYS A   9      -8.583  25.565  -3.372  0.27  0.60     0.275 HD
ATOM    127  HB3 LYS A   9     -10.421  23.103  -1.073  0.04  1.49     0.036 H 
ATOM    128  HB2 LYS A   9     -11.843  23.369  -1.828  0.04  1.49     0.036 H 
ATOM    129  N   ASN A  10     -10.400  25.765  -4.614 -0.42  1.82    -0.416 N 
ATOM    130  CA  ASN A  10     -11.004  26.622  -5.580  0.01  1.91     0.014 C 
ATOM    131  C   ASN A  10     -11.658  27.762  -4.900  0.60  1.91     0.597 C 
ATOM    132  O   ASN A  10     -12.307  28.560  -5.566 -0.57  1.66    -0.568 OA
ATOM    133  CB  ASN A  10     -12.089  25.932  -6.419 -0.20  1.91    -0.204 C 
ATOM    134  CG  ASN A  10     -11.429  24.959  -7.376  0.71  1.91     0.713 C 
ATOM    135  HA  ASN A  10     -10.264  26.994  -6.158  0.10  1.39     0.105 H 
ATOM    136  H   ASN A  10      -9.348  25.617  -4.545  0.27  0.60     0.272 HD
ATOM    137  HB3 ASN A  10     -12.563  26.617  -6.937  0.08  1.49     0.080 H 
ATOM    138  HB2 ASN A  10     -12.680  25.434  -5.816  0.08  1.49     0.080 H 
ATOM    139  OD1 ASN A  10     -11.290  23.776  -7.080 -0.59  1.66    -0.593 OA
ATOM    140  ND2 ASN A  10     -11.019  25.458  -8.568 -0.92  1.82    -0.919 N 
ATOM    141 2HD2 ASN A  10     -10.589  24.866  -9.228  0.42  0.60     0.420 HD
ATOM    142 1HD2 ASN A  10     -11.162  26.428  -8.760  0.42  0.60     0.420 HD
ATOM    143  N   ILE A  11     -11.561  27.900  -3.565 -0.42  1.82    -0.416 N 
ATOM    144  CA  ILE A  11     -12.255  29.085  -3.188 -0.06  1.91    -0.060 C 
ATOM    145  C   ILE A  11     -11.463  30.292  -3.608  0.60  1.91     0.597 C 
ATOM    146  O   ILE A  11     -11.896  31.035  -4.486 -0.57  1.66    -0.568 OA
ATOM    147  CB  ILE A  11     -12.631  29.151  -1.729  0.13  1.91     0.130 C 
ATOM    148  CG1 ILE A  11     -13.560  30.350  -1.482 -0.04  1.91    -0.043 C 
ATOM    149  CG2 ILE A  11     -11.375  29.105  -0.845 -0.32  1.91    -0.320 C 
ATOM    150  CD1 ILE A  11     -14.281  30.277  -0.138 -0.07  1.91    -0.066 C 
ATOM    151  HA  ILE A  11     -13.110  29.105  -3.717  0.09  1.39     0.087 H 
ATOM    152 2HG2 ILE A  11     -11.661  29.063   0.108  0.09  1.49     0.088 H 
ATOM    153 1HG2 ILE A  11     -10.848  28.295  -1.085  0.09  1.49     0.088 H 
ATOM    154  HB  ILE A  11     -13.136  28.329  -1.489  0.02  1.49     0.019 H 
ATOM    155 2HG1 ILE A  11     -13.018  31.181  -1.511  0.02  1.49     0.024 H 
ATOM    156 3HG1 ILE A  11     -14.241  30.372  -2.205  0.02  1.49     0.024 H 
ATOM    157 3HD1 ILE A  11     -13.604  30.257   0.593  0.02  1.49     0.019 H 
ATOM    158  H   ILE A  11     -11.085  27.258  -3.048  0.27  0.60     0.272 HD
ATOM    159 2HD1 ILE A  11     -14.865  31.079  -0.038  0.02  1.49     0.019 H 
ATOM    160 3HG2 ILE A  11     -10.842  29.929  -1.010  0.09  1.49     0.088 H 
ATOM    161 1HD1 ILE A  11     -14.834  29.449  -0.111  0.02  1.49     0.019 H 
ATOM    162  N   VAL A  12     -10.279  30.537  -2.999 -0.42  1.82    -0.416 N 
ATOM    163  CA  VAL A  12      -9.483  31.653  -3.421 -0.09  1.91    -0.087 C 
ATOM    164  C   VAL A  12      -8.538  31.338  -4.540  0.60  1.91     0.597 C 
ATOM    165  O   VAL A  12      -8.662  31.839  -5.657 -0.57  1.66    -0.568 OA
ATOM    166  CB  VAL A  12      -8.702  32.281  -2.300  0.30  1.91     0.298 C 
ATOM    167  CG1 VAL A  12      -7.852  31.212  -1.584 -0.32  1.91    -0.319 C 
ATOM    168  CG2 VAL A  12      -7.894  33.447  -2.893 -0.32  1.91    -0.319 C 
ATOM    169  HA  VAL A  12     -10.116  32.392  -3.741  0.10  1.39     0.097 H 
ATOM    170 1HG1 VAL A  12      -7.087  31.659  -1.129  0.08  1.49     0.079 H 
ATOM    171 1HG2 VAL A  12      -7.533  33.171  -3.781  0.08  1.49     0.079 H 
ATOM    172  HB  VAL A  12      -9.338  32.626  -1.617 -0.03  1.49    -0.030 H 
ATOM    173 2HG1 VAL A  12      -8.420  30.742  -0.914  0.08  1.49     0.079 H 
ATOM    174 3HG1 VAL A  12      -7.513  30.562  -2.259  0.08  1.49     0.079 H 
ATOM    175  H   VAL A  12     -10.036  29.877  -2.254  0.27  0.60     0.272 HD
ATOM    176 3HG2 VAL A  12      -8.495  34.236  -2.998  0.08  1.49     0.079 H 
ATOM    177 2HG2 VAL A  12      -7.145  33.668  -2.273  0.08  1.49     0.079 H 
ATOM    178  N   THR A  13      -7.571  30.434  -4.265 -0.42  1.82    -0.416 N 
ATOM    179  CA  THR A  13      -6.552  30.168  -5.227 -0.04  1.91    -0.039 C 
ATOM    180  C   THR A  13      -5.538  29.271  -4.573  0.60  1.91     0.597 C 
ATOM    181  O   THR A  13      -5.539  29.075  -3.356 -0.57  1.66    -0.568 OA
ATOM    182  CB  THR A  13      -5.889  31.437  -5.699  0.37  1.91     0.365 C 
ATOM    183  OG1 THR A  13      -5.206  31.242  -6.927 -0.68  1.72    -0.676 OA
ATOM    184  CG2 THR A  13      -4.907  31.906  -4.619 -0.24  1.91    -0.244 C 
ATOM    185  HA  THR A  13      -6.950  29.683  -6.005  0.10  1.39     0.101 H 
ATOM    186 2HG2 THR A  13      -4.190  32.463  -5.039  0.06  1.49     0.064 H 
ATOM    187 1HG2 THR A  13      -5.396  32.450  -3.936  0.06  1.49     0.064 H 
ATOM    188  H   THR A  13      -7.653  29.992  -3.339  0.27  0.60     0.272 HD
ATOM    189  HB  THR A  13      -6.610  32.161  -5.849  0.00  1.39     0.004 H 
ATOM    190 3HG2 THR A  13      -4.492  31.109  -4.176  0.06  1.49     0.064 H 
ATOM    191  HG1 THR A  13      -5.683  30.560  -7.496  0.41  0.00     0.410 HD
ATOM    192  N   PRO A  14      -4.656  28.730  -5.367 -0.25  1.82    -0.255 N 
ATOM    193  CA  PRO A  14      -3.654  27.851  -4.847 -0.03  1.91    -0.027 C 
ATOM    194  CD  PRO A  14      -4.958  28.405  -6.750  0.02  1.91     0.019 C 
ATOM    195  CB  PRO A  14      -2.946  27.247  -6.066 -0.01  1.91    -0.007 C 
ATOM    196  CG  PRO A  14      -3.602  27.929  -7.287  0.02  1.91     0.019 C 
ATOM    197  HG2 PRO A  14      -3.048  28.694  -7.581  0.02  1.49     0.021 H 
ATOM    198  HA  PRO A  14      -4.078  27.018  -4.437  0.06  1.39     0.064 H 
ATOM    199  HD3 PRO A  14      -5.635  27.676  -6.817  0.04  1.39     0.039 H 
ATOM    200  HD2 PRO A  14      -5.269  29.206  -7.254  0.04  1.39     0.039 H 
ATOM    201  HG3 PRO A  14      -3.720  27.270  -8.015  0.02  1.49     0.021 H 
ATOM    202  HB3 PRO A  14      -3.086  26.260  -6.116  0.03  1.49     0.025 H 
ATOM    203  HB2 PRO A  14      -1.967  27.447  -6.054  0.03  1.49     0.025 H 
ENDROOT
BRANCH   1 204
ATOM    204  CA  ASN A   2      11.487  24.227  -3.783  0.01  1.91     0.014 C 
ATOM    205  HA  ASN A   2      11.625  25.190  -3.522  0.10  1.39     0.105 H 
BRANCH 204 206
ATOM    206  CB  ASN A   2      11.395  24.234  -5.321 -0.20  1.91    -0.204 C 
ATOM    207  HB2 ASN A   2      10.466  24.017  -5.576  0.08  1.49     0.080 H 
ATOM    208  HB3 ASN A   2      11.658  25.131  -5.642  0.08  1.49     0.080 H 
BRANCH 206 209
ATOM    209  CG  ASN A   2      12.326  23.202  -5.923  0.71  1.91     0.713 C 
ATOM    210  ND2 ASN A   2      11.760  22.056  -6.387 -0.92  1.82    -0.919 N 
ATOM    211 1HD2 ASN A   2      10.769  21.949  -6.317  0.42  0.60     0.420 HD
ATOM    212 2HD2 ASN A   2      12.323  21.355  -6.780  0.42  0.60     0.420 HD
ATOM    213  OD1 ASN A   2      13.538  23.403  -5.959 -0.59  1.66    -0.593 OA
ENDBRANCH 206 209
ENDBRANCH 204 206
BRANCH 204 214
ATOM    214  N   ASN A   2      12.570  23.472  -3.231 -0.42  1.82    -0.416 N 
ATOM    215  H   ASN A   2      12.979  22.631  -3.613  0.27  0.60     0.272 HD
ATOM    216  C   GLU A   1      13.111  23.920  -2.080  0.56  1.91     0.562 C 
ATOM    217  O   GLU A   1      12.687  24.925  -1.508 -0.59  1.66    -0.589 OA
BRANCH 216 218
ATOM    218  CA  GLU A   1      14.250  23.149  -1.502  0.06  1.91     0.059 C 
ATOM    219  HA  GLU A   1      13.913  22.330  -1.019  0.12  1.10     0.120 H 
BRANCH 218 220
ATOM    220  N   GLU A   1      15.188  22.720  -2.561  0.00  1.82     0.002 N 
ATOM    221  H2  GLU A   1      16.111  23.025  -2.326  0.24  0.60     0.239 HD
ATOM    222  H3  GLU A   1      15.171  21.723  -2.633  0.24  0.60     0.239 HD
ATOM    223  H   GLU A   1      14.911  23.126  -3.432  0.24  0.60     0.239 HD
ENDBRANCH 218 220
BRANCH 218 224
ATOM    224  CB  GLU A   1      14.971  24.012  -0.452  0.09  1.91     0.091 C 
ATOM    225  HB3 GLU A   1      14.443  24.823  -0.319 -0.02  1.49    -0.023 H 
ATOM    226  HB2 GLU A   1      15.874  24.190  -0.782 -0.02  1.49    -0.023 H 
BRANCH 224 227
ATOM    227  CG  GLU A   1      15.103  23.317   0.904 -0.02  1.91    -0.024 C 
ATOM    228  HG2 GLU A   1      14.957  22.374   0.777 -0.03  1.49    -0.032 H 
ATOM    229  HG3 GLU A   1      15.950  23.562   1.292 -0.03  1.49    -0.032 H 
BRANCH 227 230
ATOM    230  CD  GLU A   1      14.003  23.841   1.818  0.81  1.91     0.809 C 
ATOM    231  OE1 GLU A   1      13.563  23.078   2.718 -0.82  1.66    -0.819 OA
ATOM    232  OE2 GLU A   1      13.588  25.014   1.622 -0.82  1.66    -0.819 OA
ENDBRANCH 227 230
ENDBRANCH 224 227
ENDBRANCH 218 224
ENDBRANCH 216 218
ENDBRANCH 204 214
ENDBRANCH   1 204
BRANCH 193 233
ATOM    233  C   PRO A  14      -2.757  28.528  -3.864  0.59  1.91     0.590 C 
ATOM    234  N   ARG A  15      -2.887  28.224  -2.563 -0.35  1.82    -0.348 N 
ATOM    235  H   ARG A  15      -3.605  27.519  -2.353  0.28  0.60     0.276 HD
ATOM    236  O   PRO A  14      -1.930  29.337  -4.281 -0.57  1.66    -0.575 OA
BRANCH 234 237
ATOM    237  CA  ARG A  15      -2.054  28.873  -1.595 -0.31  1.91    -0.307 C 
ATOM    238  HA  ARG A  15      -1.805  29.783  -1.919  0.14  1.39     0.145 H 
BRANCH 237 239
ATOM    239  CB  ARG A  15      -2.722  28.958  -0.217 -0.04  1.91    -0.037 C 
ATOM    240  HB2 ARG A  15      -3.621  28.551  -0.281  0.04  1.49     0.037 H 
ATOM    241  HB3 ARG A  15      -2.156  28.477   0.435  0.04  1.49     0.037 H 
BRANCH 239 242
ATOM    242  CG  ARG A  15      -2.887  30.398   0.271  0.07  1.91     0.074 C 
ATOM    243  HG3 ARG A  15      -3.862  30.619   0.321  0.02  1.49     0.018 H 
ATOM    244  HG2 ARG A  15      -2.441  31.019  -0.376  0.02  1.49     0.018 H 
BRANCH 242 245
ATOM    245  CD  ARG A  15      -2.279  30.634   1.651  0.11  1.91     0.111 C 
ATOM    246  HD3 ARG A  15      -2.981  30.572   2.315  0.05  1.39     0.047 H 
ATOM    247  HD2 ARG A  15      -1.798  31.474   1.640  0.05  1.39     0.047 H 
BRANCH 245 248
ATOM    248  NE  ARG A  15      -1.311  29.523   1.861 -0.56  1.82    -0.556 N 
ATOM    249  HE  ARG A  15      -1.518  28.635   1.536  0.35  0.60     0.348 HD
ATOM    250  CZ  ARG A  15      -0.134  29.752   2.508  0.84  1.91     0.837 C 
ATOM    251  NH2 ARG A  15       0.793  28.754   2.598 -0.87  1.82    -0.874 N 
ATOM    252  NH1 ARG A  15       0.118  30.978   3.053 -0.87  1.82    -0.874 N 
ATOM    253 2HH2 ARG A  15       1.639  28.935   3.047  0.45  0.60     0.449 HD
ATOM    254 1HH2 ARG A  15       0.580  27.867   2.203  0.45  0.60     0.449 HD
ATOM    255 1HH1 ARG A  15      -0.567  31.685   2.989  0.45  0.60     0.449 HD
ATOM    256 2HH1 ARG A  15       0.987  31.118   3.498  0.45  0.60     0.449 HD
ENDBRANCH 245 248
ENDBRANCH 242 245
ENDBRANCH 239 242
ENDBRANCH 237 239
BRANCH 237 257
ATOM    257  C   ARG A  15      -0.779  28.048  -1.454  0.86  1.91     0.856 C 
ATOM    258  O   ARG A  15       0.060  28.405  -0.586 -0.83  1.66    -0.827 OA
ATOM    259  OXT ARG A  15      -0.624  27.052  -2.208 -0.83  1.66    -0.827 OA
ENDBRANCH 237 257
ENDBRANCH 234 237
ENDBRANCH 193 233
TORSDOF 66
ENDMDL
