REMARK  16 active torsions:
REMARK  status: ('A' for Active; 'I' for Inactive)
REMARK    1  A    between atoms: N_1  and  CA_2 
REMARK    2  A    between atoms: CA_2  and  CB_5 
REMARK    3  A    between atoms: CA_2  and  C_3 
REMARK       I    between atoms: C_3  and  N_18 
REMARK    4  A    between atoms: CB_5  and  CG_6 
REMARK    5  A    between atoms: CG_6  and  CD_7 
REMARK    6  A    between atoms: N_18  and  CA_19 
REMARK    7  A    between atoms: CA_19  and  CB_22 
REMARK    8  A    between atoms: CA_19  and  C_20 
REMARK       I    between atoms: C_20  and  N_32 
REMARK    9  A    between atoms: CB_22  and  CG_23 
REMARK       I    between atoms: CG_23  and  ND2_29 
REMARK       I    between atoms: CA_33  and  C_34 
REMARK       I    between atoms: C_34  and  N_46 
REMARK       I    between atoms: N_46  and  CA_47 
REMARK       I    between atoms: CA_47  and  CB_50 
REMARK       I    between atoms: CA_47  and  C_48 
REMARK       I    between atoms: C_48  and  N_62 
REMARK       I    between atoms: CB_50  and  CG1_51 
REMARK       I    between atoms: CB_50  and  CG2_52 
REMARK       I    between atoms: N_62  and  CA_63 
REMARK       I    between atoms: CA_63  and  C_64 
REMARK       I    between atoms: CA_63  and  CB_66 
REMARK       I    between atoms: C_64  and  N_78 
REMARK       I    between atoms: CB_66  and  CG2_68 
REMARK       I    between atoms: CB_66  and  CG1_67 
REMARK       I    between atoms: N_78  and  CA_79 
REMARK       I    between atoms: CA_79  and  CB_83 
REMARK       I    between atoms: CA_79  and  C_80 
REMARK       I    between atoms: C_80  and  N_96 
REMARK       I    between atoms: CG_82  and  CB_83 
REMARK       I    between atoms: N_96  and  CA_97 
REMARK       I    between atoms: CA_97  and  CB_100 
REMARK       I    between atoms: CA_97  and  C_98 
REMARK       I    between atoms: C_98  and  N_116 
REMARK       I    between atoms: CB_100  and  CG_101 
REMARK       I    between atoms: N_116  and  CA_117 
REMARK       I    between atoms: CA_117  and  CB_120 
REMARK       I    between atoms: CA_117  and  C_118 
REMARK       I    between atoms: C_118  and  N_136 
REMARK       I    between atoms: CB_120  and  CG_121 
REMARK       I    between atoms: N_136  and  CA_137 
REMARK       I    between atoms: CA_137  and  C_138 
REMARK       I    between atoms: CA_137  and  CB_140 
REMARK       I    between atoms: C_138  and  N_158 
REMARK       I    between atoms: CB_140  and  CG_141 
REMARK       I    between atoms: CG_141  and  CD_142 
REMARK       I    between atoms: CD_142  and  CE_143 
REMARK       I    between atoms: CE_143  and  NZ_144 
REMARK       I    between atoms: N_158  and  CA_159 
REMARK       I    between atoms: CA_159  and  CB_162 
REMARK       I    between atoms: CA_159  and  C_160 
REMARK       I    between atoms: C_160  and  N_172 
REMARK       I    between atoms: CB_162  and  CG_163 
REMARK       I    between atoms: CG_163  and  ND2_169 
REMARK       I    between atoms: N_172  and  CA_173 
REMARK       I    between atoms: CA_173  and  C_174 
REMARK       I    between atoms: CA_173  and  CB_176 
REMARK       I    between atoms: C_174  and  N_191 
REMARK       I    between atoms: CB_176  and  CG2_178 
REMARK       I    between atoms: CB_176  and  CG1_177 
REMARK       I    between atoms: CG1_177  and  CD1_179 
REMARK       I    between atoms: N_191  and  CA_192 
REMARK       I    between atoms: CA_192  and  C_193 
REMARK       I    between atoms: CA_192  and  CB_195 
REMARK       I    between atoms: C_193  and  N_207 
REMARK       I    between atoms: CB_195  and  CG2_197 
REMARK       I    between atoms: CB_195  and  CG1_196 
REMARK       I    between atoms: N_207  and  CA_208 
REMARK       I    between atoms: CA_208  and  C_209 
REMARK       I    between atoms: CA_208  and  CB_211 
REMARK       I    between atoms: C_209  and  N_221 
REMARK       I    between atoms: CB_211  and  OG1_212 
REMARK       I    between atoms: CB_211  and  CG2_213 
REMARK   10  A    between atoms: CA_222  and  C_223 
REMARK       I    between atoms: C_223  and  N_235 
REMARK   11  A    between atoms: N_235  and  CA_236 
REMARK   12  A    between atoms: CA_236  and  CB_239 
REMARK   13  A    between atoms: CA_236  and  C_237 
REMARK   14  A    between atoms: CB_239  and  CG_240 
REMARK   15  A    between atoms: CG_240  and  CD_241 
REMARK   16  A    between atoms: CD_241  and  NE_242 
REMARK       I    between atoms: NE_242  and  CZ_243 
REMARK       I    between atoms: CZ_243  and  NH1_244 
ROOT
ATOM      1  C   ASN A   2       7.726  25.903  -3.839  0.60  1.91     0.597 C 
ATOM      2  O   ASN A   2       7.611  24.721  -3.520 -0.57  1.66    -0.568 OA
ATOM      3  N   PRO A   3       6.877  26.837  -3.529 -0.25  1.82    -0.255 N 
ATOM      4  CA  PRO A   3       5.683  26.607  -2.770 -0.03  1.91    -0.027 C 
ATOM      5  C   PRO A   3       4.643  25.912  -3.574  0.59  1.91     0.590 C 
ATOM      6  O   PRO A   3       4.651  26.019  -4.799 -0.57  1.66    -0.575 OA
ATOM      7  CD  PRO A   3       7.252  28.238  -3.565  0.02  1.91     0.019 C 
ATOM      8  CB  PRO A   3       5.230  27.982  -2.276 -0.01  1.91    -0.007 C 
ATOM      9  CG  PRO A   3       5.963  28.981  -3.189  0.02  1.91     0.019 C 
ATOM     10  HG2 PRO A   3       5.417  29.169  -3.991  0.02  1.49     0.021 H 
ATOM     11  HA  PRO A   3       5.891  26.092  -1.916  0.06  1.39     0.064 H 
ATOM     12  HD3 PRO A   3       7.978  28.442  -2.902  0.04  1.39     0.039 H 
ATOM     13  HD2 PRO A   3       7.558  28.514  -4.479  0.04  1.39     0.039 H 
ATOM     14  HG3 PRO A   3       6.166  29.809  -2.689  0.02  1.49     0.021 H 
ATOM     15  HB3 PRO A   3       5.496  28.134  -1.327  0.03  1.49     0.025 H 
ATOM     16  HB2 PRO A   3       4.243  28.097  -2.374  0.03  1.49     0.025 H 
ATOM     17  N   VAL A   4       3.731  25.196  -2.898 -0.42  1.82    -0.416 N 
ATOM     18  CA  VAL A   4       2.702  24.513  -3.611 -0.09  1.91    -0.087 C 
ATOM     19  C   VAL A   4       1.401  25.149  -3.262  0.60  1.91     0.597 C 
ATOM     20  O   VAL A   4       1.199  25.629  -2.147 -0.57  1.66    -0.568 OA
ATOM     21  CB  VAL A   4       2.614  23.052  -3.295  0.30  1.91     0.298 C 
ATOM     22  CG1 VAL A   4       3.906  22.367  -3.779 -0.32  1.91    -0.319 C 
ATOM     23  CG2 VAL A   4       2.343  22.898  -1.790 -0.32  1.91    -0.319 C 
ATOM     24  HA  VAL A   4       2.859  24.632  -4.594  0.10  1.39     0.097 H 
ATOM     25 1HG1 VAL A   4       4.556  23.066  -4.067  0.08  1.49     0.079 H 
ATOM     26 1HG2 VAL A   4       2.681  22.008  -1.491  0.08  1.49     0.079 H 
ATOM     27  HB  VAL A   4       1.879  22.649  -3.822 -0.03  1.49    -0.030 H 
ATOM     28 2HG1 VAL A   4       4.291  21.833  -3.030  0.08  1.49     0.079 H 
ATOM     29 3HG1 VAL A   4       3.689  21.769  -4.546  0.08  1.49     0.079 H 
ATOM     30  H   VAL A   4       3.853  25.197  -1.877  0.27  0.60     0.272 HD
ATOM     31 3HG2 VAL A   4       2.817  23.626  -1.301  0.08  1.49     0.079 H 
ATOM     32 2HG2 VAL A   4       1.360  22.962  -1.631  0.08  1.49     0.079 H 
ATOM     33  N   VAL A   5       0.495  25.187  -4.254 -0.42  1.82    -0.416 N 
ATOM     34  CA  VAL A   5      -0.794  25.788  -4.096 -0.09  1.91    -0.087 C 
ATOM     35  C   VAL A   5      -1.713  24.757  -3.535  0.60  1.91     0.597 C 
ATOM     36  O   VAL A   5      -1.550  23.563  -3.778 -0.57  1.66    -0.568 OA
ATOM     37  CB  VAL A   5      -1.413  26.195  -5.395  0.30  1.91     0.298 C 
ATOM     38  CG1 VAL A   5      -0.454  27.140  -6.127 -0.32  1.91    -0.319 C 
ATOM     39  CG2 VAL A   5      -1.755  24.924  -6.184 -0.32  1.91    -0.319 C 
ATOM     40  HA  VAL A   5      -0.718  26.538  -3.437  0.10  1.39     0.097 H 
ATOM     41 1HG1 VAL A   5       0.203  26.601  -6.651  0.08  1.49     0.079 H 
ATOM     42 1HG2 VAL A   5      -2.570  25.094  -6.734  0.08  1.49     0.079 H 
ATOM     43  HB  VAL A   5      -2.234  26.723  -5.212 -0.03  1.49    -0.030 H 
ATOM     44 2HG1 VAL A   5      -0.977  27.726  -6.744  0.08  1.49     0.079 H 
ATOM     45 3HG1 VAL A   5       0.029  27.701  -5.458  0.08  1.49     0.079 H 
ATOM     46  H   VAL A   5       0.829  24.737  -5.139  0.27  0.60     0.272 HD
ATOM     47 3HG2 VAL A   5      -0.986  24.694  -6.776  0.08  1.49     0.079 H 
ATOM     48 2HG2 VAL A   5      -1.926  24.180  -5.541  0.08  1.49     0.079 H 
ATOM     49  N   HIS A   6      -2.706  25.202  -2.749 -0.35  1.82    -0.348 N 
ATOM     50  CA  HIS A   6      -3.658  24.268  -2.234 -0.14  1.91    -0.135 C 
ATOM     51  C   HIS A   6      -4.998  24.733  -2.684  0.73  1.91     0.734 C 
ATOM     52  O   HIS A   6      -5.183  25.903  -3.015 -0.59  1.66    -0.589 OA
ATOM     53  CG  HIS A   6      -3.887  25.377   0.059 -0.00  1.91    -0.001 A 
ATOM     54  CB  HIS A   6      -3.645  24.112  -0.701 -0.04  1.91    -0.041 C 
ATOM     55  HB2 HIS A   6      -4.354  23.442  -0.440  0.08  1.49     0.081 H 
ATOM     56  HB3 HIS A   6      -2.748  23.740  -0.424  0.08  1.49     0.081 H 
ATOM     57  H   HIS A   6      -2.703  26.211  -2.574  0.27  0.60     0.275 HD
ATOM     58  HA  HIS A   6      -3.478  23.370  -2.629  0.12  1.39     0.121 H 
ATOM     59  CD2 HIS A   6      -3.008  26.330   0.472 -0.11  1.91    -0.114 A 
ATOM     60  HE2 HIS A   6      -3.274  28.126   1.565  0.39  0.60     0.391 HD
ATOM     61  HD1 HIS A   6      -5.982  25.339   0.375  0.39  0.60     0.387 HD
ATOM     62  HD2 HIS A   6      -2.008  26.312   0.297  0.23  1.41     0.232 H 
ATOM     63  CE1 HIS A   6      -4.933  26.962   1.156 -0.02  1.91    -0.017 A 
ATOM     64  ND1 HIS A   6      -5.125  25.789   0.500 -0.15  1.82    -0.151 N 
ATOM     65  NE2 HIS A   6      -3.665  27.331   1.164 -0.17  1.82    -0.172 N 
ATOM     66  HE1 HIS A   6      -5.690  27.483   1.585  0.27  1.36     0.268 H 
ATOM     67  N   PHE A   7      -5.969  23.804  -2.736 -0.42  1.82    -0.416 N 
ATOM     68  CA  PHE A   7      -7.264  24.158  -3.226 -0.00  1.91    -0.002 C 
ATOM     69  C   PHE A   7      -8.069  24.510  -2.014  0.60  1.91     0.597 C 
ATOM     70  O   PHE A   7      -8.180  23.719  -1.078 -0.57  1.66    -0.568 OA
ATOM     71  CB  PHE A   7      -7.914  22.979  -3.961 -0.03  1.91    -0.034 C 
ATOM     72  CG  PHE A   7      -8.955  23.505  -4.875  0.01  1.91     0.012 A 
ATOM     73  CD1 PHE A   7      -8.593  24.020  -6.100 -0.13  1.91    -0.126 A 
ATOM     74  CD2 PHE A   7     -10.282  23.474  -4.525 -0.13  1.91    -0.126 A 
ATOM     75  CE1 PHE A   7      -9.539  24.508  -6.970 -0.17  1.91    -0.170 A 
ATOM     76  CE2 PHE A   7     -11.227  23.961  -5.391 -0.17  1.91    -0.170 A 
ATOM     77  CZ  PHE A   7     -10.864  24.478  -6.612 -0.11  1.91    -0.107 A 
ATOM     78  HZ  PHE A   7     -11.561  24.831  -7.240  0.13  1.46     0.130 H 
ATOM     79  HA  PHE A   7      -7.165  24.988  -3.762  0.10  1.39     0.098 H 
ATOM     80  HE1 PHE A   7      -9.254  24.884  -7.861  0.14  1.46     0.143 H 
ATOM     81  HE2 PHE A   7     -12.214  23.939  -5.121  0.14  1.46     0.143 H 
ATOM     82  H   PHE A   7      -5.690  22.871  -2.404  0.27  0.60     0.272 HD
ATOM     83  HD2 PHE A   7     -10.558  23.097  -3.642  0.13  1.46     0.133 H 
ATOM     84  HD1 PHE A   7      -7.627  24.040  -6.365  0.13  1.46     0.133 H 
ATOM     85  HB3 PHE A   7      -8.335  22.413  -3.295  0.03  1.49     0.029 H 
ATOM     86  HB2 PHE A   7      -7.224  22.543  -4.485  0.03  1.49     0.029 H 
ATOM     87  N   PHE A   8      -8.629  25.736  -1.990 -0.42  1.82    -0.416 N 
ATOM     88  CA  PHE A   8      -9.339  26.194  -0.828 -0.00  1.91    -0.002 C 
ATOM     89  C   PHE A   8     -10.499  25.275  -0.614  0.60  1.91     0.597 C 
ATOM     90  O   PHE A   8     -10.607  24.629   0.428 -0.57  1.66    -0.568 OA
ATOM     91  CB  PHE A   8      -9.906  27.611  -1.031 -0.03  1.91    -0.034 C 
ATOM     92  CG  PHE A   8     -10.320  28.195   0.280  0.01  1.91     0.012 A 
ATOM     93  CD1 PHE A   8     -11.501  27.830   0.886 -0.13  1.91    -0.126 A 
ATOM     94  CD2 PHE A   8      -9.523  29.135   0.897 -0.13  1.91    -0.126 A 
ATOM     95  CE1 PHE A   8     -11.873  28.380   2.091 -0.17  1.91    -0.170 A 
ATOM     96  CE2 PHE A   8      -9.889  29.689   2.101 -0.17  1.91    -0.170 A 
ATOM     97  CZ  PHE A   8     -11.068  29.313   2.700 -0.11  1.91    -0.107 A 
ATOM     98  HZ  PHE A   8     -11.342  29.715   3.576  0.13  1.46     0.130 H 
ATOM     99  HA  PHE A   8      -8.727  26.086  -0.045  0.10  1.39     0.098 H 
ATOM    100  HE1 PHE A   8     -12.742  28.093   2.523  0.14  1.46     0.143 H 
ATOM    101  HE2 PHE A   8      -9.285  30.377   2.543  0.14  1.46     0.143 H 
ATOM    102  H   PHE A   8      -8.497  26.281  -2.857  0.27  0.60     0.272 HD
ATOM    103  HD2 PHE A   8      -8.663  29.418   0.461  0.13  1.46     0.133 H 
ATOM    104  HD1 PHE A   8     -12.098  27.157   0.449  0.13  1.46     0.133 H 
ATOM    105  HB3 PHE A   8     -10.692  27.535  -1.601  0.03  1.49     0.029 H 
ATOM    106  HB2 PHE A   8      -9.196  28.162  -1.408  0.03  1.49     0.029 H 
ATOM    107  N   LYS A   9     -11.369  25.189  -1.640 -0.35  1.82    -0.348 N 
ATOM    108  CA  LYS A   9     -12.530  24.347  -1.710 -0.24  1.91    -0.240 C 
ATOM    109  C   LYS A   9     -13.538  25.085  -2.520  0.73  1.91     0.734 C 
ATOM    110  O   LYS A   9     -14.744  25.010  -2.290 -0.59  1.66    -0.589 OA
ATOM    111  CB  LYS A   9     -13.131  23.936  -0.351 -0.01  1.91    -0.009 C 
ATOM    112  CG  LYS A   9     -13.463  25.087   0.594  0.02  1.91     0.019 C 
ATOM    113  CD  LYS A   9     -14.057  24.591   1.912 -0.05  1.91    -0.048 C 
ATOM    114  CE  LYS A   9     -13.008  23.981   2.851 -0.01  1.91    -0.014 C 
ATOM    115  NZ  LYS A   9     -12.382  22.789   2.230 -0.39  1.82    -0.385 N 
ATOM    116  HA  LYS A   9     -12.292  23.496  -2.170  0.14  1.39     0.143 H 
ATOM    117  HE2 LYS A   9     -12.310  24.669   3.036  0.11  1.10     0.114 H 
ATOM    118  HE3 LYS A   9     -13.458  23.719   3.702  0.11  1.10     0.114 H 
ATOM    119  HG2 LYS A   9     -12.625  25.598   0.792  0.01  1.49     0.010 H 
ATOM    120  HG3 LYS A   9     -14.125  25.693   0.151  0.01  1.49     0.010 H 
ATOM    121  HZ1 LYS A   9     -11.873  22.279   2.924  0.34  0.60     0.340 HD
ATOM    122  HZ3 LYS A   9     -13.093  22.202   1.841  0.34  0.60     0.340 HD
ATOM    123  HZ2 LYS A   9     -11.757  23.079   1.505  0.34  0.60     0.340 HD
ATOM    124  HD3 LYS A   9     -14.743  23.893   1.714  0.06  1.49     0.062 H 
ATOM    125  HD2 LYS A   9     -14.487  25.361   2.381  0.06  1.49     0.062 H 
ATOM    126  H   LYS A   9     -11.093  25.848  -2.443  0.27  0.60     0.275 HD
ATOM    127  HB3 LYS A   9     -12.473  23.333   0.106  0.04  1.49     0.036 H 
ATOM    128  HB2 LYS A   9     -13.973  23.423  -0.530  0.04  1.49     0.036 H 
ATOM    129  N   ASN A  10     -13.019  25.811  -3.525 -0.42  1.82    -0.416 N 
ATOM    130  CA  ASN A  10     -13.786  26.558  -4.467  0.01  1.91     0.014 C 
ATOM    131  C   ASN A  10     -14.492  27.660  -3.777  0.60  1.91     0.597 C 
ATOM    132  O   ASN A  10     -15.272  28.359  -4.414 -0.57  1.66    -0.568 OA
ATOM    133  CB  ASN A  10     -14.863  25.726  -5.179 -0.20  1.91    -0.204 C 
ATOM    134  CG  ASN A  10     -14.191  24.777  -6.151  0.71  1.91     0.713 C 
ATOM    135  HA  ASN A  10     -13.139  26.972  -5.123  0.10  1.39     0.105 H 
ATOM    136  H   ASN A  10     -11.956  25.769  -3.544  0.27  0.60     0.272 HD
ATOM    137  HB3 ASN A  10     -15.446  26.336  -5.679  0.08  1.49     0.080 H 
ATOM    138  HB2 ASN A  10     -15.348  25.203  -4.506  0.08  1.49     0.080 H 
ATOM    139  OD1 ASN A  10     -13.909  23.629  -5.822 -0.59  1.66    -0.593 OA
ATOM    140  ND2 ASN A  10     -13.936  25.256  -7.394 -0.92  1.82    -0.919 N 
ATOM    141 2HD2 ASN A  10     -13.505  24.677  -8.065  0.42  0.60     0.420 HD
ATOM    142 1HD2 ASN A  10     -14.191  26.197  -7.610  0.42  0.60     0.420 HD
ATOM    143  N   ILE A  11     -14.297  27.871  -2.463 -0.42  1.82    -0.416 N 
ATOM    144  CA  ILE A  11     -15.073  29.000  -2.073 -0.06  1.91    -0.060 C 
ATOM    145  C   ILE A  11     -14.445  30.256  -2.608  0.60  1.91     0.597 C 
ATOM    146  O   ILE A  11     -15.023  30.911  -3.473 -0.57  1.66    -0.568 OA
ATOM    147  CB  ILE A  11     -15.329  29.099  -0.590  0.13  1.91     0.130 C 
ATOM    148  CG1 ILE A  11     -16.350  30.213  -0.309 -0.04  1.91    -0.043 C 
ATOM    149  CG2 ILE A  11     -14.005  29.218   0.181 -0.32  1.91    -0.320 C 
ATOM    150  CD1 ILE A  11     -16.944  30.135   1.096 -0.07  1.91    -0.066 C 
ATOM    151  HA  ILE A  11     -15.967  28.911  -2.524  0.09  1.39     0.087 H 
ATOM    152 2HG2 ILE A  11     -14.204  29.194   1.156  0.09  1.49     0.088 H 
ATOM    153 1HG2 ILE A  11     -13.421  28.452  -0.073  0.09  1.49     0.088 H 
ATOM    154  HB  ILE A  11     -15.727  28.244  -0.274  0.02  1.49     0.019 H 
ATOM    155 2HG1 ILE A  11     -15.899  31.090  -0.418  0.02  1.49     0.024 H 
ATOM    156 3HG1 ILE A  11     -17.088  30.134  -0.969  0.02  1.49     0.024 H 
ATOM    157 3HD1 ILE A  11     -16.209  30.216   1.764  0.02  1.49     0.019 H 
ATOM    158  H   ILE A  11     -13.717  27.304  -1.965  0.27  0.60     0.272 HD
ATOM    159 2HD1 ILE A  11     -17.595  30.880   1.215  0.02  1.49     0.019 H 
ATOM    160 3HG2 ILE A  11     -13.573  30.081  -0.064  0.09  1.49     0.088 H 
ATOM    161 1HD1 ILE A  11     -17.407  29.259   1.204  0.02  1.49     0.019 H 
ATOM    162  N   VAL A  12     -13.244  30.644  -2.117 -0.42  1.82    -0.416 N 
ATOM    163  CA  VAL A  12     -12.603  31.811  -2.652 -0.09  1.91    -0.087 C 
ATOM    164  C   VAL A  12     -11.729  31.535  -3.837  0.60  1.91     0.597 C 
ATOM    165  O   VAL A  12     -11.997  31.968  -4.957 -0.57  1.66    -0.568 OA
ATOM    166  CB  VAL A  12     -11.798  32.564  -1.630  0.30  1.91     0.298 C 
ATOM    167  CG1 VAL A  12     -10.787  31.619  -0.951 -0.32  1.91    -0.319 C 
ATOM    168  CG2 VAL A  12     -11.164  33.774  -2.338 -0.32  1.91    -0.319 C 
ATOM    169  HA  VAL A  12     -13.332  32.468  -2.943  0.10  1.39     0.097 H 
ATOM    170 1HG1 VAL A  12     -10.035  32.159  -0.583  0.08  1.49     0.079 H 
ATOM    171 1HG2 VAL A  12     -10.854  33.491  -3.243  0.08  1.49     0.079 H 
ATOM    172  HB  VAL A  12     -12.406  32.879  -0.907 -0.03  1.49    -0.030 H 
ATOM    173 2HG1 VAL A  12     -11.246  31.128  -0.215  0.08  1.49     0.079 H 
ATOM    174 3HG1 VAL A  12     -10.442  30.973  -1.627  0.08  1.49     0.079 H 
ATOM    175  H   VAL A  12     -12.874  30.047  -1.371  0.27  0.60     0.272 HD
ATOM    176 3HG2 VAL A  12     -11.849  34.494  -2.420  0.08  1.49     0.079 H 
ATOM    177 2HG2 VAL A  12     -10.392  34.096  -1.796  0.08  1.49     0.079 H 
ATOM    178  N   THR A  13     -10.656  30.744  -3.613 -0.42  1.82    -0.416 N 
ATOM    179  CA  THR A  13      -9.700  30.532  -4.651 -0.04  1.91    -0.039 C 
ATOM    180  C   THR A  13      -8.550  29.770  -4.054  0.60  1.91     0.597 C 
ATOM    181  O   THR A  13      -8.428  29.633  -2.835 -0.57  1.66    -0.568 OA
ATOM    182  CB  THR A  13      -9.211  31.835  -5.229  0.37  1.91     0.365 C 
ATOM    183  OG1 THR A  13      -8.618  31.648  -6.504 -0.68  1.72    -0.676 OA
ATOM    184  CG2 THR A  13      -8.194  32.448  -4.260 -0.24  1.91    -0.244 C 
ATOM    185  HA  THR A  13     -10.112  29.974  -5.370  0.10  1.39     0.101 H 
ATOM    186 2HG2 THR A  13      -7.574  33.052  -4.763  0.06  1.49     0.064 H 
ATOM    187 1HG2 THR A  13      -8.676  32.975  -3.558  0.06  1.49     0.064 H 
ATOM    188  H   THR A  13     -10.615  30.341  -2.667  0.27  0.60     0.272 HD
ATOM    189  HB  THR A  13     -10.011  32.478  -5.343  0.00  1.39     0.004 H 
ATOM    190 3HG2 THR A  13      -7.665  31.718  -3.824  0.06  1.49     0.064 H 
ATOM    191  HG1 THR A  13      -9.070  30.897  -7.001  0.41  0.00     0.410 HD
ATOM    192  N   PRO A  14      -7.688  29.279  -4.901 -0.25  1.82    -0.255 N 
ATOM    193  CA  PRO A  14      -6.562  28.528  -4.438 -0.03  1.91    -0.027 C 
ATOM    194  CD  PRO A  14      -8.071  28.861  -6.238  0.02  1.91     0.019 C 
ATOM    195  CB  PRO A  14      -5.902  27.937  -5.690 -0.01  1.91    -0.007 C 
ATOM    196  CG  PRO A  14      -6.724  28.493  -6.874  0.02  1.91     0.019 C 
ATOM    197  HG2 PRO A  14      -6.277  29.293  -7.246  0.02  1.49     0.021 H 
ATOM    198  HA  PRO A  14      -6.864  27.678  -3.959  0.06  1.39     0.064 H 
ATOM    199  HD3 PRO A  14      -8.674  28.067  -6.216  0.04  1.39     0.039 H 
ATOM    200  HD2 PRO A  14      -8.503  29.602  -6.744  0.04  1.39     0.039 H 
ATOM    201  HG3 PRO A  14      -6.836  27.792  -7.562  0.02  1.49     0.021 H 
ATOM    202  HB3 PRO A  14      -5.946  26.940  -5.689  0.03  1.49     0.025 H 
ATOM    203  HB2 PRO A  14      -4.951  28.232  -5.773  0.03  1.49     0.025 H 
ENDROOT
BRANCH   1 204
ATOM    204  CA  ASN A   2       8.903  26.445  -4.579  0.01  1.91     0.014 C 
ATOM    205  HA  ASN A   2       8.981  27.422  -4.347  0.10  1.39     0.105 H 
BRANCH 204 206
ATOM    206  CB  ASN A   2       8.664  26.408  -6.101 -0.20  1.91    -0.204 C 
ATOM    207  HB2 ASN A   2       7.845  26.924  -6.298  0.08  1.49     0.080 H 
ATOM    208  HB3 ASN A   2       9.454  26.799  -6.547  0.08  1.49     0.080 H 
BRANCH 206 209
ATOM    209  CG  ASN A   2       8.478  24.985  -6.584  0.71  1.91     0.713 C 
ATOM    210  ND2 ASN A   2       9.405  24.072  -6.189 -0.92  1.82    -0.919 N 
ATOM    211 1HD2 ASN A   2      10.154  24.374  -5.601  0.42  0.60     0.420 HD
ATOM    212 2HD2 ASN A   2       9.330  23.138  -6.481  0.42  0.60     0.420 HD
ATOM    213  OD1 ASN A   2       7.536  24.695  -7.319 -0.59  1.66    -0.593 OA
ENDBRANCH 206 209
ENDBRANCH 204 206
BRANCH 204 214
ATOM    214  N   ASN A   2      10.095  25.797  -4.124 -0.42  1.82    -0.416 N 
ATOM    215  H   ASN A   2      10.415  24.873  -4.374  0.27  0.60     0.272 HD
ATOM    216  C   GLU A   1      10.882  26.484  -3.271  0.56  1.91     0.562 C 
ATOM    217  O   GLU A   1      10.589  27.613  -2.878 -0.59  1.66    -0.589 OA
BRANCH 216 218
ATOM    218  CA  GLU A   1      12.135  25.824  -2.800  0.06  1.91     0.059 C 
ATOM    219  HA  GLU A   1      12.772  26.506  -2.418  0.12  1.10     0.120 H 
BRANCH 218 220
ATOM    220  N   GLU A   1      11.842  24.816  -1.759  0.00  1.82     0.002 N 
ATOM    221  H2  GLU A   1      11.357  25.255  -1.003  0.24  0.60     0.239 HD
ATOM    222  H3  GLU A   1      11.273  24.094  -2.151  0.24  0.60     0.239 HD
ATOM    223  H   GLU A   1      12.701  24.426  -1.427  0.24  0.60     0.239 HD
ENDBRANCH 218 220
BRANCH 218 224
ATOM    224  CB  GLU A   1      12.853  25.177  -3.998  0.09  1.91     0.091 C 
ATOM    225  HB3 GLU A   1      12.224  24.564  -4.427 -0.02  1.49    -0.023 H 
ATOM    226  HB2 GLU A   1      13.655  24.731  -3.659 -0.02  1.49    -0.023 H 
BRANCH 224 227
ATOM    227  CG  GLU A   1      13.298  26.195  -5.049 -0.02  1.91    -0.024 C 
ATOM    228  HG2 GLU A   1      12.517  26.511  -5.515 -0.03  1.49    -0.032 H 
ATOM    229  HG3 GLU A   1      13.829  26.871  -4.614 -0.03  1.49    -0.032 H 
BRANCH 227 230
ATOM    230  CD  GLU A   1      14.187  25.481  -6.058  0.81  1.91     0.809 C 
ATOM    231  OE1 GLU A   1      14.123  24.225  -6.124 -0.82  1.66    -0.819 OA
ATOM    232  OE2 GLU A   1      14.945  26.187  -6.775 -0.82  1.66    -0.819 OA
ENDBRANCH 227 230
ENDBRANCH 224 227
ENDBRANCH 218 224
ENDBRANCH 216 218
ENDBRANCH 204 214
ENDBRANCH   1 204
BRANCH 193 233
ATOM    233  C   PRO A  14      -5.658  29.335  -3.566  0.59  1.91     0.590 C 
ATOM    234  N   ARG A  15      -5.579  30.659  -3.776 -0.35  1.82    -0.348 N 
ATOM    235  H   ARG A  15      -6.178  31.013  -4.532  0.28  0.60     0.276 HD
ATOM    236  O   PRO A  14      -5.020  28.760  -2.686 -0.57  1.66    -0.575 OA
BRANCH 234 237
ATOM    237  CA  ARG A  15      -4.704  31.455  -2.968 -0.31  1.91    -0.307 C 
ATOM    238  HA  ARG A  15      -3.952  30.894  -2.630  0.14  1.39     0.145 H 
BRANCH 237 239
ATOM    239  CB  ARG A  15      -4.166  32.676  -3.725 -0.04  1.91    -0.037 C 
ATOM    240  HB2 ARG A  15      -4.933  33.171  -4.104  0.04  1.49     0.037 H 
ATOM    241  HB3 ARG A  15      -3.655  33.236  -3.091  0.04  1.49     0.037 H 
BRANCH 239 242
ATOM    242  CG  ARG A  15      -3.234  32.293  -4.876  0.07  1.91     0.074 C 
ATOM    243  HG3 ARG A  15      -3.590  31.475  -5.330  0.02  1.49     0.018 H 
ATOM    244  HG2 ARG A  15      -2.322  32.097  -4.511  0.02  1.49     0.018 H 
BRANCH 242 245
ATOM    245  CD  ARG A  15      -3.098  33.393  -5.925  0.11  1.91     0.111 C 
ATOM    246  HD3 ARG A  15      -2.462  33.105  -6.596  0.05  1.39     0.047 H 
ATOM    247  HD2 ARG A  15      -2.875  34.223  -5.479  0.05  1.39     0.047 H 
BRANCH 245 248
ATOM    248  NE  ARG A  15      -4.442  33.523  -6.551 -0.56  1.82    -0.556 N 
ATOM    249  HE  ARG A  15      -4.929  32.730  -6.817  0.35  0.60     0.348 HD
ATOM    250  CZ  ARG A  15      -4.989  34.755  -6.750  0.84  1.91     0.837 C 
ATOM    251  NH2 ARG A  15      -6.266  34.859  -7.222 -0.87  1.82    -0.874 N 
ATOM    252  NH1 ARG A  15      -4.266  35.877  -6.467 -0.87  1.82    -0.874 N 
ATOM    253 2HH2 ARG A  15      -6.654  35.745  -7.343  0.45  0.60     0.449 HD
ATOM    254 1HH2 ARG A  15      -6.767  34.026  -7.431  0.45  0.60     0.449 HD
ATOM    255 1HH1 ARG A  15      -3.341  35.785  -6.137  0.45  0.60     0.449 HD
ATOM    256 2HH1 ARG A  15      -4.697  36.754  -6.604  0.45  0.60     0.449 HD
ENDBRANCH 245 248
ENDBRANCH 242 245
ENDBRANCH 239 242
ENDBRANCH 237 239
BRANCH 237 257
ATOM    257  C   ARG A  15      -5.506  31.955  -1.771  0.86  1.91     0.856 C 
ATOM    258  O   ARG A  15      -6.687  32.341  -1.973 -0.83  1.66    -0.827 OA
ATOM    259  OXT ARG A  15      -4.953  31.960  -0.640 -0.83  1.66    -0.827 OA
ENDBRANCH 237 257
ENDBRANCH 234 237
ENDBRANCH 193 233
TORSDOF 66
